data_0_PM
_symmetry_space_group_name_H-M	'P1'
_cell_length_a	59.292221
_cell_length_b	59.292221
_cell_length_c	59.292221
_cell_angle_alpha	90.000000
_cell_angle_beta	90.000000
_cell_angle_gamma	90.000000
_symmetry_Int_Tables_number 1

loop_
_symmetry_equiv_pos_as_xyz
'x,y,z'

loop_
_atom_site_label
_atom_site_type_symbol
_atom_site_fract_x
_atom_site_fract_y
_atom_site_fract_z
X1	C	0.003810	0.891695	0.998753
C2	C	0.984735	0.903450	0.994941
C3	C	0.983740	0.926033	0.995565
C4	C	0.001567	0.939661	0.999832
C5	C	0.021013	0.927653	0.003728
C6	C	0.021722	0.904631	0.003256
C7	C	0.998936	0.963155	0.999866
H8	H	0.967178	0.932628	0.991720
H9	H	0.969000	0.894866	0.991113
H10	H	0.037339	0.895878	0.007084
C11	C	0.061558	0.931481	0.999360
C12	C	0.978546	0.973561	0.999411
C13	C	0.975189	0.996110	0.999360
C14	C	0.992561	0.011660	0.999782
C15	C	0.013323	0.001069	0.999900
C16	C	0.015903	0.978418	0.000051
C17	C	0.989104	0.033299	0.008687
H18	H	0.957919	0.002317	0.999225
H19	H	0.962979	0.964049	0.999613
H20	H	0.033308	0.973274	0.999478
H21	H	0.028367	0.011525	0.999562
C22	C	0.989137	0.052694	0.996510
C23	C	0.984600	0.077065	0.006039
H24	H	0.991903	0.051817	0.978396
H25	H	0.986017	0.034513	0.026716
C26	C	0.999155	0.097692	0.997791
X27	C	0.982931	0.118689	0.995245
N28	N	0.961815	0.110037	0.005415
N29	N	0.961427	0.085380	0.001991
H30	H	0.956350	0.083373	0.985699
H31	H	0.961528	0.112027	0.022483
H32	H	0.007032	0.093964	0.981550
H33	H	0.979777	0.120983	0.977215
H34	H	0.012547	0.101065	0.009968
H35	H	0.986692	0.076256	0.024355
H36	H	0.067309	0.915391	0.006241
H37	H	0.074275	0.944333	0.002952
H38	H	0.059130	0.930132	0.981128
O39	O	0.040577	0.938177	0.010019

loop_
_geom_bond_atom_site_label_1
_geom_bond_atom_site_label_2
_geom_bond_distance
_ccdc_geom_bond_type
X1	C2	0.02273	. A
X1	C6	0.02255	. A
C2	C3	0.02261	. A
C2	H9	0.01833	. A
C3	C4	0.02284	. A
C3	H8	0.01824	. A
C4	C5	0.02318	. A
C4	C7	0.02364	. A
C5	C6	0.02304	. A
C5	O39	0.02309	. A
C6	H10	0.01831	. A
C7	C12	0.02290	. A
C7	C16	0.02282	. A
C11	H36	0.01842	. A
C11	H37	0.01843	. A
C11	H38	0.01844	. A
C11	O39	0.02447	. A
C12	C13	0.02280	. A
C12	H19	0.01824	. A
C13	C14	0.02332	. A
C13	H18	0.01835	. A
C14	C15	0.02331	. A
C14	C17	0.02365	. A
C15	C16	0.02280	. A
C15	H21	0.01832	. A
C16	H20	0.01816	. A
C17	C22	0.02290	. A
C17	H25	0.01833	. A
C22	C23	0.02656	. A
C22	H24	0.01834	. A
C23	C26	0.02656	. A
C23	N29	0.02495	. A
C23	H35	0.01845	. A
C26	X27	0.02666	. A
C26	H32	0.01843	. A
C26	H34	0.01841	. A
X27	N28	0.02498	. A
X27	H33	0.01845	. A
N28	N29	0.02490	. A
N28	H31	0.01719	. A
N29	H30	0.01718	. A
