data_NewTest_PM
_symmetry_space_group_name_H-M	'P1'
_cell_length_a	42.426201
_cell_length_b	42.426201
_cell_length_c	42.426201
_cell_angle_alpha	90.000000
_cell_angle_beta	90.000000
_cell_angle_gamma	90.000000
_symmetry_Int_Tables_number 1

loop_
_symmetry_equiv_pos_as_xyz
'x,y,z'

loop_
_atom_site_label
_atom_site_type_symbol
_atom_site_fract_x
_atom_site_fract_y
_atom_site_fract_z
X1	C	0.004381	-0.092278	0.001643
C1	C	-0.023715	-0.078678	0.008360
C2	C	-0.026614	-0.046716	0.005320
C3	C	-0.001394	-0.028355	-0.003283
C4	C	0.026443	-0.043016	-0.008870
C5	C	0.029224	-0.074529	-0.006984
C6	C	-0.003869	0.007543	-0.007950
C7	C	-0.057255	-0.032904	0.009892
Br1	Br	-0.058505	-0.103686	0.022125
H1	H	0.051710	-0.085348	-0.013089
H2	H	0.047138	-0.029746	-0.016224
C8	C	0.024887	0.028968	-0.004509
N1	N	0.008765	0.057818	0.004306
N2	N	-0.019236	0.051195	0.018684
N3	N	-0.025105	0.022510	0.015149
C9	C	0.019018	0.088365	-0.000101
H3	H	0.040609	0.021543	0.014606
H4	H	0.038252	0.031089	-0.026453
H5	H	-0.013957	0.011267	-0.031568
N4	N	-0.082264	-0.022156	0.012980
X2	C	0.001317	0.114293	0.003434
H6	H	-0.023408	0.112737	0.009798
H7	H	0.043578	0.090086	-0.007267

loop_
_geom_bond_atom_site_label_1
_geom_bond_atom_site_label_2
_geom_bond_distance
_ccdc_geom_bond_type
C1	C2	0.03224	. A
C1	Br1	0.04500	. A
C2	C3	0.03236	. A
C2	C7	0.03392	. A
C3	C4	0.03195	. A
C3	C6	0.03628	. A
C4	C5	0.03169	. A
C4	H2	0.02566	. A
C5	H1	0.02569	. A
C6	C8	0.03602	. A
C6	N3	0.03476	. A
C6	H5	0.02595	. A
C7	N4	0.02739	. A
C8	N1	0.03420	. A
C8	H3	0.02584	. A
C8	H4	0.02578	. A
N1	N2	0.03217	. A
N1	C9	0.03252	. A
N2	N3	0.02949	. A
C9	H7	0.02564	. A
