data_NewTest_PM
_symmetry_space_group_name_H-M	'P1'
_cell_length_a	40.050155
_cell_length_b	40.050155
_cell_length_c	40.050155
_cell_angle_alpha	90.000000
_cell_angle_beta	90.000000
_cell_angle_gamma	90.000000
_symmetry_Int_Tables_number 1

loop_
_symmetry_equiv_pos_as_xyz
'x,y,z'

loop_
_atom_site_label
_atom_site_type_symbol
_atom_site_fract_x
_atom_site_fract_y
_atom_site_fract_z
X1	C	0.001650	-0.060006	0.013007
C1	C	-0.027039	-0.044375	0.003369
C2	C	-0.026889	-0.010468	0.001022
C3	C	-0.000022	0.008134	0.009486
C4	C	0.027793	-0.008171	0.018875
C5	C	0.029441	-0.041753	0.019973
C6	C	-0.000272	0.046036	0.008962
H1	H	-0.049311	0.002391	-0.007068
C7	C	-0.058299	-0.064550	-0.006069
C8	C	0.085695	-0.048720	0.005067
H2	H	0.049640	0.005987	0.026490
C9	C	0.031588	0.063315	-0.001924
N1	N	0.017506	0.093352	-0.015382
N2	N	-0.015403	0.089008	-0.023872
N3	N	-0.024891	0.060493	-0.014708
N4	N	0.029615	0.123589	-0.005695
H3	H	0.048791	0.068333	0.018700
H4	H	0.044572	0.050406	-0.022224
H5	H	-0.007263	0.054676	0.034031
C10	C	-0.089585	-0.046048	-0.017530
H6	H	-0.109186	-0.064150	-0.023572
H7	H	-0.084966	-0.031042	-0.039877
H8	H	-0.099223	-0.029868	0.002295
H9	H	-0.051633	-0.082228	-0.025944
H10	H	-0.066115	-0.078932	0.015853
X2	N	0.006170	0.142990	0.000872
H11	H	0.077755	-0.054388	-0.020501
H12	H	0.107218	-0.064325	0.011034
H13	H	0.093111	-0.022528	0.007189
O1	O	0.059553	-0.057159	0.028138

loop_
_geom_bond_atom_site_label_1
_geom_bond_atom_site_label_2
_geom_bond_distance
_ccdc_geom_bond_type
C1	C2	0.03399	. A
C1	C7	0.03838	. A
C2	C3	0.03376	. A
C2	H1	0.02708	. A
C3	C4	0.03358	. A
C3	C6	0.03791	. A
C4	C5	0.03364	. A
C4	H2	0.02712	. A
C5	O1	0.03480	. A
C6	C9	0.03784	. A
C6	N3	0.03709	. A
C6	H5	0.02742	. A
C7	C10	0.03811	. A
C7	H9	0.02742	. A
C7	H10	0.02736	. A
C8	H11	0.02737	. A
C8	H12	0.02725	. A
C8	H13	0.02730	. A
C8	O1	0.03587	. A
C9	N1	0.03580	. A
C9	H3	0.02732	. A
C9	H4	0.02734	. A
N1	N2	0.03426	. A
N1	N4	0.03398	. A
N2	N3	0.03142	. A
C10	H6	0.02736	. A
C10	H7	0.02731	. A
C10	H8	0.02734	. A
