data_10_PM
_symmetry_space_group_name_H-M	'P1'
_cell_length_a	40.050155
_cell_length_b	40.050155
_cell_length_c	40.050155
_cell_angle_alpha	90.000000
_cell_angle_beta	90.000000
_cell_angle_gamma	90.000000
_symmetry_Int_Tables_number 1

loop_
_symmetry_equiv_pos_as_xyz
'x,y,z'

loop_
_atom_site_label
_atom_site_type_symbol
_atom_site_fract_x
_atom_site_fract_y
_atom_site_fract_z
X_C1	X_C	-0.009763	0.051086	0.012659
C1	C	-0.038452	0.066716	0.003021
C2	C	-0.038302	0.100624	0.000674
C3	C	-0.011436	0.119226	0.009139
C4	C	0.016379	0.102921	0.018527
C5	C	0.018027	0.069338	0.019625
C6	C	-0.011685	0.157128	0.008614
H1	H	-0.060724	0.113483	-0.007416
C7	C	-0.069713	0.046542	-0.006417
C8	C	0.074282	0.062372	0.004719
H2	H	0.038227	0.117078	0.026142
C9	C	0.020175	0.174406	-0.002272
N1	N	0.006092	0.204444	-0.015730
N2	N	-0.026816	0.200099	-0.024220
N3	N	-0.036304	0.171585	-0.015056
N4	N	0.018202	0.234681	-0.006042
H3	H	0.037378	0.179425	0.018352
H4	H	0.033158	0.161498	-0.022572
H5	H	-0.018677	0.165767	0.033683
C10	C	-0.100998	0.065043	-0.017878
H6	H	-0.120599	0.046941	-0.023920
H7	H	-0.096379	0.080050	-0.040225
H8	H	-0.110636	0.081223	0.001948
H9	H	-0.063046	0.028864	-0.026292
H10	H	-0.077528	0.032160	0.015506
X_N1	X_N	-0.005243	0.254081	0.000524
H11	H	0.066342	0.056704	-0.020849
H12	H	0.095805	0.046766	0.010687
H13	H	0.081698	0.088564	0.006841
O1	O	0.048140	0.053932	0.027790

loop_
_geom_bond_atom_site_label_1
_geom_bond_atom_site_label_2
_geom_bond_distance
X_C1	C1	0.03406
X_C1	C5	0.03397
C1	C2	0.03399
C1	C7	0.03838
C2	C3	0.03376
C2	H1	0.02708
C3	C4	0.03358
C3	C6	0.03791
C4	C5	0.03364
C4	H2	0.02712
C5	O1	0.03480
C6	C9	0.03784
C6	N3	0.03709
C6	H5	0.02742
C7	C10	0.03811
C7	H9	0.02742
C7	H10	0.02736
C8	H11	0.02737
C8	H12	0.02725
C8	H13	0.02730
C8	O1	0.03587
C9	N1	0.03580
C9	H3	0.02732
C9	H4	0.02734
N1	N2	0.03426
N1	N4	0.03398
N2	N3	0.03142
N4	X_N1	0.03113
C10	H6	0.02736
C10	H7	0.02731
C10	H8	0.02734
