data_1_PM
_symmetry_space_group_name_H-M	'P1'
_cell_length_a	42.426201
_cell_length_b	42.426201
_cell_length_c	42.426201
_cell_angle_alpha	90.000000
_cell_angle_beta	90.000000
_cell_angle_gamma	90.000000
_symmetry_Int_Tables_number 1

loop_
_symmetry_equiv_pos_as_xyz
'x,y,z'

loop_
_atom_site_label
_atom_site_type_symbol
_atom_site_fract_x
_atom_site_fract_y
_atom_site_fract_z
X_C1	X_C	0.003818	0.044854	-0.000589
C1	C	-0.024277	0.058454	0.006128
C2	C	-0.027177	0.090416	0.003088
C3	C	-0.001956	0.108777	-0.005515
C4	C	0.025880	0.094116	-0.011102
C5	C	0.028662	0.062603	-0.009216
C6	C	-0.004431	0.144675	-0.010182
C7	C	-0.057818	0.104228	0.007660
Br1	Br	-0.059067	0.033446	0.019893
H1	H	0.051148	0.051784	-0.015321
H2	H	0.046575	0.107386	-0.018456
C8	C	0.024325	0.166100	-0.006741
N1	N	0.008202	0.194950	0.002074
N2	N	-0.019799	0.188327	0.016452
N3	N	-0.025668	0.159642	0.012917
C9	C	0.018456	0.225497	-0.002333
H3	H	0.040046	0.158676	0.012374
H4	H	0.037689	0.168222	-0.028685
H5	H	-0.014519	0.148399	-0.033800
N4	N	-0.082826	0.114976	0.010748
X_C2	X_C	0.000754	0.251425	0.001202
H6	H	-0.023971	0.249869	0.007566
H7	H	0.043016	0.227218	-0.009499

loop_
_geom_bond_atom_site_label_1
_geom_bond_atom_site_label_2
_geom_bond_distance
X_C1	C1	0.03193
X_C1	C5	0.03173
C1	C2	0.03224
C1	Br1	0.04500
C2	C3	0.03236
C2	C7	0.03392
C3	C4	0.03195
C3	C6	0.03628
C4	C5	0.03169
C4	H2	0.02566
C5	H1	0.02569
C6	C8	0.03602
C6	N3	0.03476
C6	H5	0.02595
C7	N4	0.02739
C8	N1	0.03420
C8	H3	0.02584
C8	H4	0.02578
N1	N2	0.03217
N1	C9	0.03252
N2	N3	0.02949
C9	X_C2	0.03159
C9	H7	0.02564
X_C2	H6	0.02558
