data_NewTest_PM
_symmetry_space_group_name_H-M	'P1'
_cell_length_a	44.384578
_cell_length_b	44.384578
_cell_length_c	44.384578
_cell_angle_alpha	90.000000
_cell_angle_beta	90.000000
_cell_angle_gamma	90.000000
_symmetry_Int_Tables_number 1

loop_
_symmetry_equiv_pos_as_xyz
'x,y,z'

loop_
_atom_site_label
_atom_site_type_symbol
_atom_site_fract_x
_atom_site_fract_y
_atom_site_fract_z
X1	C	0.021769	-0.073415	0.000374
C1	C	-0.004817	-0.059536	0.006209
C2	C	-0.006845	-0.029075	0.007741
C3	C	0.018232	-0.012538	0.002334
C4	C	0.044750	-0.026282	-0.003276
C5	C	0.046687	-0.056517	-0.003997
C6	C	0.017443	0.019523	0.002627
C7	C	-0.058484	-0.016999	-0.001969
H1	H	-0.024959	-0.072919	0.010377
H2	H	0.068767	-0.066070	-0.008390
H3	H	0.064959	-0.012876	-0.007061
C8	C	0.019110	0.046536	0.002695
N1	N	0.024427	0.076096	0.003123
N2	N	0.001424	0.090899	-0.002623
N3	N	0.009602	0.121022	-0.001023
X2	N	-0.012455	0.137829	-0.004605
H4	H	-0.072814	-0.035542	0.005624
H5	H	-0.052626	-0.019545	-0.025761
H6	H	-0.071327	0.003954	0.000554
O1	O	-0.032845	-0.014543	0.017046

loop_
_geom_bond_atom_site_label_1
_geom_bond_atom_site_label_2
_geom_bond_distance
_ccdc_geom_bond_type
C1	C2	0.03057	. A
C1	H1	0.02454	. A
C2	C3	0.03052	. A
C2	O1	0.03121	. A
C3	C4	0.03039	. A
C3	C6	0.03207	. A
C4	C5	0.03031	. A
C4	H3	0.02455	. A
C5	H2	0.02446	. A
C6	C8	0.02707	. A
C7	H4	0.02463	. A
C7	H5	0.02463	. A
C7	H6	0.02470	. A
C7	O1	0.03202	. A
C8	N1	0.03004	. A
N1	N2	0.02795	. A
N2	N3	0.03125	. A
