data_2_PM
_symmetry_space_group_name_H-M	'P1'
_cell_length_a	44.384578
_cell_length_b	44.384578
_cell_length_c	44.384578
_cell_angle_alpha	90.000000
_cell_angle_beta	90.000000
_cell_angle_gamma	90.000000
_symmetry_Int_Tables_number 1

loop_
_symmetry_equiv_pos_as_xyz
'x,y,z'

loop_
_atom_site_label
_atom_site_type_symbol
_atom_site_fract_x
_atom_site_fract_y
_atom_site_fract_z
X1	C	0.021769	0.926585	0.000374
C2	C	0.995183	0.940464	0.006209
C3	C	0.993155	0.970925	0.007741
C4	C	0.018232	0.987462	0.002334
C5	C	0.044750	0.973718	0.996724
C6	C	0.046687	0.943483	0.996003
C7	C	0.017443	0.019523	0.002627
C8	C	0.941516	0.983001	0.998031
H9	H	0.975041	0.927081	0.010377
H10	H	0.068767	0.933930	0.991610
H11	H	0.064959	0.987124	0.992939
C12	C	0.019110	0.046536	0.002695
N13	N	0.024427	0.076096	0.003123
N14	N	0.001424	0.090899	0.997377
N15	N	0.009602	0.121022	0.998977
X16	N	0.987545	0.137829	0.995395
H17	H	0.927186	0.964458	0.005624
H18	H	0.947374	0.980455	0.974239
H19	H	0.928673	0.003954	0.000554
O20	O	0.967155	0.985457	0.017046

loop_
_geom_bond_atom_site_label_1
_geom_bond_atom_site_label_2
_geom_bond_distance
_ccdc_geom_bond_type
X1	C2	0.03055	. A
X1	C6	0.03042	. A
C2	C3	0.03057	. A
C2	H9	0.02454	. A
C3	C4	0.03052	. A
C3	O20	0.03121	. A
C4	C5	0.03039	. A
C4	C7	0.03207	. A
C5	C6	0.03031	. A
C5	H11	0.02455	. A
C6	H10	0.02446	. A
C7	C12	0.02707	. A
C8	H17	0.02463	. A
C8	H18	0.02463	. A
C8	H19	0.02470	. A
C8	O20	0.03202	. A
C12	N13	0.03004	. A
N13	N14	0.02795	. A
N14	N15	0.03125	. A
N15	X16	0.02796	. A
