data_2_PM
_symmetry_space_group_name_H-M	'P1'
_cell_length_a	44.384578
_cell_length_b	44.384578
_cell_length_c	44.384578
_cell_angle_alpha	90.000000
_cell_angle_beta	90.000000
_cell_angle_gamma	90.000000
_symmetry_Int_Tables_number 1

loop_
_symmetry_equiv_pos_as_xyz
'x,y,z'

loop_
_atom_site_label
_atom_site_type_symbol
_atom_site_fract_x
_atom_site_fract_y
_atom_site_fract_z
X_C1	X_C	0.015681	0.045601	0.000541
C1	C	-0.010905	0.059480	0.006376
C2	C	-0.012932	0.089941	0.007908
C3	C	0.012144	0.106478	0.002501
C4	C	0.038662	0.092735	-0.003109
C5	C	0.040600	0.062499	-0.003830
C6	C	0.011355	0.138539	0.002794
C7	C	-0.064572	0.102017	-0.001802
H1	H	-0.031047	0.046097	0.010544
H2	H	0.062679	0.052946	-0.008224
H3	H	0.058872	0.106140	-0.006894
C8	C	0.013023	0.165553	0.002861
N1	N	0.018340	0.195113	0.003289
N2	N	-0.004664	0.209915	-0.002456
N3	N	0.003515	0.240038	-0.000856
X_N1	X_N	-0.018542	0.256846	-0.004438
H4	H	-0.078901	0.083475	0.005790
H5	H	-0.058714	0.099471	-0.025594
H6	H	-0.077414	0.122971	0.000721
O1	O	-0.038932	0.104473	0.017213

loop_
_geom_bond_atom_site_label_1
_geom_bond_atom_site_label_2
_geom_bond_distance
X_C1	C1	0.03055
X_C1	C5	0.03042
C1	C2	0.03057
C1	H1	0.02454
C2	C3	0.03052
C2	O1	0.03121
C3	C4	0.03039
C3	C6	0.03207
C4	C5	0.03031
C4	H3	0.02455
C5	H2	0.02446
C6	C8	0.02707
C7	H4	0.02463
C7	H5	0.02463
C7	H6	0.02470
C7	O1	0.03202
C8	N1	0.03004
N1	N2	0.02795
N2	N3	0.03125
N3	X_N1	0.02796
