data_NewTest_PM
_symmetry_space_group_name_H-M	'P1'
_cell_length_a	32.036329
_cell_length_b	32.036329
_cell_length_c	32.036329
_cell_angle_alpha	90.000000
_cell_angle_beta	90.000000
_cell_angle_gamma	90.000000
_symmetry_Int_Tables_number 1

loop_
_symmetry_equiv_pos_as_xyz
'x,y,z'

loop_
_atom_site_label
_atom_site_type_symbol
_atom_site_fract_x
_atom_site_fract_y
_atom_site_fract_z
X1	C	0.009400	-0.074984	-0.001120
C1	C	-0.026778	-0.052415	-0.001088
C2	C	-0.025404	-0.009558	0.000348
C3	C	0.011710	0.011512	0.000129
C4	C	0.046888	-0.011899	-0.000339
C5	C	0.045702	-0.053695	-0.000683
C6	C	0.018514	0.057304	0.001378
C7	C	-0.064173	0.012636	0.002751
Br1	Br	-0.080592	-0.078885	-0.003149
F1	F	0.082879	-0.073673	-0.000495
H1	H	0.077697	0.002553	-0.000152
N1	N	-0.095793	0.030334	0.005279
X2	C	-0.009017	0.088799	-0.001837
H2	H	-0.042198	0.085241	-0.006239
H3	H	0.051165	0.066730	0.005217

loop_
_geom_bond_atom_site_label_1
_geom_bond_atom_site_label_2
_geom_bond_distance
_ccdc_geom_bond_type
C1	C2	0.04290	. A
C1	Br1	0.06001	. A
C2	C3	0.04268	. A
C2	C7	0.04474	. A
C3	C4	0.04226	. A
C3	C6	0.04631	. A
C4	C5	0.04181	. A
C4	H1	0.03403	. A
C5	F1	0.04220	. A
C6	H3	0.03420	. A
C7	N1	0.03632	. A
