data_NewTest_PM
_symmetry_space_group_name_H-M	'P1'
_cell_length_a	25.000000
_cell_length_b	25.000000
_cell_length_c	25.000000
_cell_angle_alpha	90.000000
_cell_angle_beta	90.000000
_cell_angle_gamma	90.000000
_symmetry_Int_Tables_number 1

loop_
_symmetry_equiv_pos_as_xyz
'x,y,z'

loop_
_atom_site_label
_atom_site_type_symbol
_atom_site_fract_x
_atom_site_fract_y
_atom_site_fract_z
X1	C	0.012045	-0.096088	-0.001435
C1	C	-0.034315	-0.067168	-0.001395
C2	C	-0.032555	-0.012248	0.000445
C3	C	0.015005	0.014752	0.000165
C4	C	0.060085	-0.015248	-0.000435
C5	C	0.058565	-0.068808	-0.000875
C6	C	0.023725	0.073432	0.001765
C7	C	-0.082235	0.016192	0.003525
Br1	Br	-0.103275	-0.101088	-0.004035
F1	F	0.106205	-0.094408	-0.000635
H1	H	0.099565	0.003272	-0.000195
N1	N	-0.122755	0.038872	0.006765
X2	C	-0.011555	0.113792	-0.002355
H2	H	-0.054075	0.109232	-0.007995
H3	H	0.065565	0.085512	0.006685

loop_
_geom_bond_atom_site_label_1
_geom_bond_atom_site_label_2
_geom_bond_distance
_ccdc_geom_bond_type
X1	C1	0.05464	. A
X1	C5	0.05393	. A
C1	C2	0.05498	. A
C1	Br1	0.07690	. A
C2	C3	0.05469	. A
C2	C7	0.05733	. A
C3	C4	0.05415	. A
C3	C6	0.05935	. A
C4	C5	0.05358	. A
C4	H1	0.04361	. A
C5	F1	0.05408	. A
C6	X2	0.05376	. A
C6	H3	0.04383	. A
X2	H2	0.04313	. A
