data_32_PM
_symmetry_space_group_name_H-M	'P1'
_cell_length_a	35.774595
_cell_length_b	35.774595
_cell_length_c	35.774595
_cell_angle_alpha	90.000000
_cell_angle_beta	90.000000
_cell_angle_gamma	90.000000
_symmetry_Int_Tables_number 1

loop_
_symmetry_equiv_pos_as_xyz
'x,y,z'

loop_
_atom_site_label
_atom_site_type_symbol
_atom_site_fract_x
_atom_site_fract_y
_atom_site_fract_z
X1	C	0.985943	0.958324	0.017248
C2	C	0.951309	0.974145	0.016158
C3	C	0.945663	0.010763	0.009254
C4	C	0.974286	0.036172	0.004781
C5	C	0.008472	0.018003	0.000924
C6	C	0.014426	0.981133	0.007800
C7	C	0.967969	0.074552	0.010819
H8	H	0.917095	0.021162	0.008024
Cl9	Cl	0.910051	0.949183	0.021218
C10	C	0.054259	0.965787	0.006067
F11	F	0.035559	0.041986	0.990833
X12	C	0.941498	0.100939	0.001455
H13	H	0.917346	0.092385	0.984991
H14	H	0.990443	0.086683	0.027255
C15	C	0.061331	0.942475	0.970427
H16	H	0.081066	0.919917	0.976353
H17	H	0.035503	0.929868	0.959973
H18	H	0.073016	0.959917	0.948317
H19	H	0.075056	0.988094	0.007437
H20	H	0.059710	0.948512	0.030666

loop_
_geom_bond_atom_site_label_1
_geom_bond_atom_site_label_2
_geom_bond_distance
_ccdc_geom_bond_type
X1	C2	0.03809	. A
X1	C6	0.03769	. A
C2	C3	0.03769	. A
C2	Cl9	0.04849	. A
C3	C4	0.03853	. A
C3	H8	0.03043	. A
C4	C5	0.03891	. A
C4	C7	0.03936	. A
C5	C6	0.03798	. A
C5	F11	0.03756	. A
C6	C10	0.04272	. A
C7	X12	0.03853	. A
C7	H14	0.03037	. A
C10	C15	0.04317	. A
C10	H19	0.03053	. A
C10	H20	0.03055	. A
X12	H13	0.03046	. A
C15	H16	0.03055	. A
C15	H17	0.03058	. A
C15	H18	0.03049	. A
