data_36_PM
_symmetry_space_group_name_H-M	'P1'
_cell_length_a	43.029993
_cell_length_b	43.029993
_cell_length_c	43.029993
_cell_angle_alpha	90.000000
_cell_angle_beta	90.000000
_cell_angle_gamma	90.000000
_symmetry_Int_Tables_number 1

loop_
_symmetry_equiv_pos_as_xyz
'x,y,z'

loop_
_atom_site_label
_atom_site_type_symbol
_atom_site_fract_x
_atom_site_fract_y
_atom_site_fract_z
X1	C	0.009150	0.936961	0.999998
C2	C	0.980612	0.950161	0.999975
C3	C	0.976335	0.981046	0.999952
C4	C	0.000295	0.000870	0.999998
C5	C	0.028973	0.988065	0.000022
C6	C	0.033296	0.956808	0.000022
C7	C	0.995229	0.031639	0.999998
H8	H	0.952585	0.989854	0.999929
H9	H	0.959626	0.936031	0.999929
F10	F	0.062415	0.945443	0.000068
F11	F	0.054165	0.006610	0.000068
C12	C	0.989164	0.059922	0.999998
C13	C	0.982471	0.092178	0.000022
X14	C	0.975685	0.124412	0.000022

loop_
_geom_bond_atom_site_label_1
_geom_bond_atom_site_label_2
_geom_bond_distance
_ccdc_geom_bond_type
X1	C2	0.03144	. A
X1	C6	0.03126	. A
C2	C3	0.03118	. A
C2	H9	0.02530	. A
C3	C4	0.03110	. A
C3	H8	0.02533	. A
C4	C5	0.03141	. A
C4	C7	0.03118	. A
C5	C6	0.03155	. A
C5	F11	0.03128	. A
C6	F10	0.03126	. A
C7	C12	0.02893	. A
C12	C13	0.03294	. A
C13	X14	0.03294	. A
