data_3_PM
_symmetry_space_group_name_H-M	'P1'
_cell_length_a	32.036329
_cell_length_b	32.036329
_cell_length_c	32.036329
_cell_angle_alpha	90.000000
_cell_angle_beta	90.000000
_cell_angle_gamma	90.000000
_symmetry_Int_Tables_number 1

loop_
_symmetry_equiv_pos_as_xyz
'x,y,z'

loop_
_atom_site_label
_atom_site_type_symbol
_atom_site_fract_x
_atom_site_fract_y
_atom_site_fract_z
X1	C	0.009400	0.925016	0.998880
C2	C	0.973222	0.947585	0.998912
C3	C	0.974596	0.990442	0.000348
C4	C	0.011710	0.011512	0.000129
C5	C	0.046888	0.988101	0.999661
C6	C	0.045702	0.946305	0.999317
C7	C	0.018514	0.057304	0.001378
C8	C	0.935827	0.012636	0.002751
Br9	Br	0.919408	0.921115	0.996851
F10	F	0.082879	0.926327	0.999505
H11	H	0.077697	0.002553	0.999848
N12	N	0.904207	0.030334	0.005279
X13	C	0.990983	0.088799	0.998163
H14	H	0.957802	0.085241	0.993761
H15	H	0.051165	0.066730	0.005217

loop_
_geom_bond_atom_site_label_1
_geom_bond_atom_site_label_2
_geom_bond_distance
_ccdc_geom_bond_type
X1	C2	0.04264	. A
X1	C6	0.04209	. A
C2	C3	0.04290	. A
C2	Br9	0.06001	. A
C3	C4	0.04268	. A
C3	C8	0.04474	. A
C4	C5	0.04226	. A
C4	C7	0.04631	. A
C5	C6	0.04181	. A
C5	H11	0.03403	. A
C6	F10	0.04220	. A
C7	X13	0.04196	. A
C7	H15	0.03420	. A
C8	N12	0.03632	. A
X13	H14	0.03366	. A
