data_NewTest_PM
_symmetry_space_group_name_H-M	'P1'
_cell_length_a	58.818410
_cell_length_b	58.818410
_cell_length_c	58.818410
_cell_angle_alpha	90.000000
_cell_angle_beta	90.000000
_cell_angle_gamma	90.000000
_symmetry_Int_Tables_number 1

loop_
_symmetry_equiv_pos_as_xyz
'x,y,z'

loop_
_atom_site_label
_atom_site_type_symbol
_atom_site_fract_x
_atom_site_fract_y
_atom_site_fract_z
X1	C	0.002964	-0.131788	0.001303
C1	C	-0.016112	-0.119955	-0.002948
C2	C	-0.015466	-0.097122	-0.004223
C3	C	0.003882	-0.084694	-0.000823
C4	C	0.023025	-0.097071	0.004295
C5	C	0.022294	-0.120159	0.004975
C6	C	0.002096	-0.059004	-0.002455
H1	H	-0.031634	-0.089097	-0.008048
H2	H	-0.032281	-0.128677	-0.005379
H3	H	0.037800	-0.129272	0.009191
Br1	Br	0.052047	-0.085102	0.011963
C7	C	-0.017897	-0.048123	0.001524
C8	C	-0.020090	-0.025393	0.000283
C9	C	-0.002069	-0.011604	-0.004376
C10	C	0.017806	-0.022128	-0.008762
C11	C	0.019574	-0.045080	-0.008286
C12	C	-0.005248	0.014187	-0.004223
H4	H	-0.036786	-0.018320	0.003241
H5	H	-0.033267	-0.057287	0.006029
H6	H	0.036099	-0.051694	-0.012741
H7	H	0.032852	-0.012267	-0.012673
C13	C	0.015273	0.030202	-0.001673
C14	C	0.005514	0.052032	0.009344
N1	N	-0.018101	0.045742	0.015414
N2	N	-0.018900	0.021566	0.015380
C15	C	0.006653	0.074032	-0.005600
H8	H	-0.035154	0.015615	0.014292
H9	H	-0.029152	0.052117	0.003615
H10	H	0.027922	0.022790	0.009905
H11	H	0.015035	0.055245	0.025088
H12	H	0.023620	0.033365	-0.018011
H13	H	-0.014157	0.018777	-0.020034
O1	O	0.026018	0.088109	0.000351
C16	C	-0.005112	0.113000	-0.003866
C17	C	-0.014208	0.089333	-0.002693
H14	H	-0.027197	0.085950	-0.015563
H15	H	-0.004126	0.118695	-0.021581
H16	H	-0.015789	0.125088	0.005451
H17	H	-0.022063	0.087293	0.014088
H18	H	0.017415	0.110653	0.025224
X2	C	0.018282	0.110466	0.006590
H19	H	0.008642	0.069578	-0.023588

loop_
_geom_bond_atom_site_label_1
_geom_bond_atom_site_label_2
_geom_bond_distance
_ccdc_geom_bond_type
C1	C2	0.02288	. A
C1	H2	0.01853	. A
C2	C3	0.02325	. A
C2	H1	0.01845	. A
C3	C4	0.02336	. A
C3	C6	0.02580	. A
C4	C5	0.02311	. A
C4	Br1	0.03232	. A
C5	H3	0.01847	. A
C6	C7	0.02311	. A
C6	C11	0.02309	. A
C7	C8	0.02287	. A
C7	H5	0.01845	. A
C8	C9	0.02316	. A
C8	H4	0.01837	. A
C9	C10	0.02291	. A
C9	C12	0.02599	. A
C10	C11	0.02302	. A
C10	H7	0.01841	. A
C11	H6	0.01835	. A
C12	C13	0.02616	. A
C12	N2	0.02500	. A
C12	H13	0.01872	. A
C13	C14	0.02633	. A
C13	H10	0.01868	. A
C13	H12	0.01862	. A
C14	N1	0.02518	. A
C14	C15	0.02662	. A
C14	H11	0.01868	. A
N1	N2	0.02419	. A
N1	H9	0.01738	. A
N2	H8	0.01734	. A
C15	O1	0.02467	. A
C15	C17	0.02603	. A
C15	H19	0.01864	. A
C16	C17	0.02538	. A
C16	H15	0.01863	. A
C16	H16	0.01863	. A
C17	H14	0.01860	. A
C17	H17	0.01864	. A
