data_41_PM
_symmetry_space_group_name_H-M	'P1'
_cell_length_a	43.128605
_cell_length_b	43.128605
_cell_length_c	43.128605
_cell_angle_alpha	90.000000
_cell_angle_beta	90.000000
_cell_angle_gamma	90.000000
_symmetry_Int_Tables_number 1

loop_
_symmetry_equiv_pos_as_xyz
'x,y,z'

loop_
_atom_site_label
_atom_site_type_symbol
_atom_site_fract_x
_atom_site_fract_y
_atom_site_fract_z
X1	C	0.016504	0.927579	0.994065
C2	C	0.987011	0.938662	0.997752
C3	C	0.981052	0.970219	0.000233
C4	C	0.002430	0.993846	0.997984
C5	C	0.031599	0.981673	0.995479
C6	C	0.037813	0.950464	0.993485
C7	C	0.993017	0.031408	0.002551
C8	C	0.957008	0.977523	0.006354
C9	C	0.935885	0.916960	0.982309
H10	H	0.061811	0.943091	0.991538
C11	C	0.059747	0.002703	0.996778
C12	C	0.011032	0.063290	0.994506
X13	C	0.986779	0.091554	0.000209
N14	N	0.959257	0.075949	0.986854
N15	N	0.962735	0.041587	0.988778
H16	H	0.944534	0.033889	0.001763
H17	H	0.958376	0.080077	0.963621
H18	H	0.031668	0.066211	0.008812
H19	H	0.983301	0.093177	0.025274
H20	H	0.018267	0.063035	0.970183
H21	H	0.989770	0.033240	0.027639
N22	N	0.936117	0.982949	0.021842
C23	C	0.065683	0.013160	0.030468
H24	H	0.044050	0.014876	0.043568
H25	H	0.076975	0.035790	0.030862
H26	H	0.080592	0.996513	0.042455
H27	H	0.080476	0.990670	0.988523
H28	H	0.056733	0.022528	0.981452
H29	H	0.915945	0.923753	0.996453
H30	H	0.931897	0.893588	0.973336
H31	H	0.938436	0.933144	0.962972
O32	O	0.963500	0.916890	0.001902

loop_
_geom_bond_atom_site_label_1
_geom_bond_atom_site_label_2
_geom_bond_distance
_ccdc_geom_bond_type
X1	C2	0.03172	. A
X1	C6	0.03127	. A
C2	C3	0.03221	. A
C2	O32	0.03231	. A
C3	C4	0.03194	. A
C3	C8	0.02586	. A
C4	C5	0.03171	. A
C4	C7	0.03899	. A
C5	C6	0.03188	. A
C5	C11	0.03516	. A
C6	H10	0.02518	. A
C7	C12	0.03749	. A
C7	N15	0.03479	. A
C7	H21	0.02536	. A
C8	N22	0.02657	. A
C9	H29	0.02537	. A
C9	H30	0.02535	. A
C9	H31	0.02535	. A
C9	O32	0.03386	. A
C11	C23	0.03577	. A
C11	H27	0.02535	. A
C11	H28	0.02524	. A
C12	X13	0.03768	. A
C12	H18	0.02528	. A
C12	H20	0.02538	. A
X13	N14	0.03434	. A
X13	H19	0.02536	. A
N14	N15	0.03459	. A
N14	H17	0.02361	. A
N15	H16	0.02365	. A
C23	H24	0.02535	. A
C23	H25	0.02529	. A
C23	H26	0.02536	. A
