data_46_PM
_symmetry_space_group_name_H-M	'P1'
_cell_length_a	43.128605
_cell_length_b	43.128605
_cell_length_c	43.128605
_cell_angle_alpha	90.000000
_cell_angle_beta	90.000000
_cell_angle_gamma	90.000000
_symmetry_Int_Tables_number 1

loop_
_symmetry_equiv_pos_as_xyz
'x,y,z'

loop_
_atom_site_label
_atom_site_type_symbol
_atom_site_fract_x
_atom_site_fract_y
_atom_site_fract_z
X1	C	0.021939	0.915176	0.004722
C2	C	0.996063	0.928277	0.017776
C3	C	0.989408	0.959462	0.015875
C4	C	0.007123	0.981003	0.000850
C5	C	0.033300	0.967694	0.989164
C6	C	0.040256	0.936786	0.991297
C7	C	0.997709	0.017591	0.993500
Br8	Br	0.952542	0.973096	0.035908
Cl9	Cl	0.970210	0.905484	0.038714
H10	H	0.061588	0.928740	0.980516
Cl11	Cl	0.059663	0.990509	0.969456
C12	C	0.010299	0.048939	0.009174
X13	C	0.989130	0.077041	0.996143
N14	N	0.959103	0.060277	0.997071
N15	N	0.964228	0.026471	0.991436
H16	H	0.954536	0.021463	0.970499
H17	H	0.949829	0.061158	0.018796
H18	H	0.034691	0.052718	0.003563
H19	H	0.995112	0.080287	0.971728
H20	H	0.008050	0.047432	0.034355
H21	H	0.005221	0.020396	0.969456

loop_
_geom_bond_atom_site_label_1
_geom_bond_atom_site_label_2
_geom_bond_distance
_ccdc_geom_bond_type
X1	C2	0.03181	. A
X1	C6	0.03135	. A
C2	C3	0.03194	. A
C2	Cl9	0.04033	. A
C3	C4	0.03168	. A
C3	Br8	0.04412	. A
C4	C5	0.03161	. A
C4	C7	0.03849	. A
C5	C6	0.03175	. A
C5	Cl11	0.04005	. A
C6	H10	0.02522	. A
C7	C12	0.03724	. A
C7	N15	0.03470	. A
C7	H21	0.02535	. A
C12	X13	0.03752	. A
C12	H18	0.02531	. A
C12	H20	0.02533	. A
X13	N14	0.03440	. A
X13	H19	0.02535	. A
N14	N15	0.03465	. A
N14	H17	0.02364	. A
N15	H16	0.02361	. A
