data_4_PM
_symmetry_space_group_name_H-M	'P1'
_cell_length_a	58.818410
_cell_length_b	58.818410
_cell_length_c	58.818410
_cell_angle_alpha	90.000000
_cell_angle_beta	90.000000
_cell_angle_gamma	90.000000
_symmetry_Int_Tables_number 1

loop_
_symmetry_equiv_pos_as_xyz
'x,y,z'

loop_
_atom_site_label
_atom_site_type_symbol
_atom_site_fract_x
_atom_site_fract_y
_atom_site_fract_z
X_C1	X_C	0.003485	0.021337	0.001360
C1	C	-0.015590	0.033170	-0.002890
C2	C	-0.014944	0.056003	-0.004165
C3	C	0.004403	0.068431	-0.000765
C4	C	0.023547	0.056054	0.004352
C5	C	0.022816	0.032966	0.005032
C6	C	0.002618	0.094120	-0.002397
H1	H	-0.031113	0.064028	-0.007991
H2	H	-0.031759	0.024448	-0.005321
H3	H	0.038321	0.023853	0.009249
Br1	Br	0.052569	0.068023	0.012020
C7	C	-0.017376	0.105001	0.001581
C8	C	-0.019569	0.127732	0.000340
C9	C	-0.001547	0.141520	-0.004318
C10	C	0.018328	0.130996	-0.008705
C11	C	0.020096	0.108044	-0.008229
C12	C	-0.004726	0.167312	-0.004165
H4	H	-0.036264	0.134805	0.003298
H5	H	-0.032745	0.095837	0.006087
H6	H	0.036621	0.101431	-0.012683
H7	H	0.033374	0.140857	-0.012615
C13	C	0.015794	0.183327	-0.001615
C14	C	0.006036	0.205157	0.009402
N1	N	-0.017580	0.198866	0.015471
N2	N	-0.018379	0.174690	0.015437
C15	C	0.007175	0.227157	-0.005542
H8	H	-0.034632	0.168740	0.014349
H9	H	-0.028630	0.205242	0.003672
H10	H	0.028443	0.175914	0.009963
H11	H	0.015556	0.208370	0.025145
H12	H	0.024142	0.186489	-0.017954
H13	H	-0.013635	0.171902	-0.019977
O1	O	0.026539	0.241234	0.000408
C16	C	-0.004590	0.266124	-0.003808
C17	C	-0.013686	0.242458	-0.002635
H14	H	-0.026675	0.239075	-0.015505
H15	H	-0.003604	0.271820	-0.021524
H16	H	-0.015267	0.278212	0.005508
H17	H	-0.021541	0.240418	0.014145
H18	H	0.017937	0.263778	0.025281
X_C2	X_C	0.018804	0.263591	0.006648
H19	H	0.009164	0.222702	-0.023530

loop_
_geom_bond_atom_site_label_1
_geom_bond_atom_site_label_2
_geom_bond_distance
X_C1	C1	0.02285
X_C1	C5	0.02286
C1	C2	0.02288
C1	H2	0.01853
C2	C3	0.02325
C2	H1	0.01845
C3	C4	0.02336
C3	C6	0.02580
C4	C5	0.02311
C4	Br1	0.03232
C5	H3	0.01847
C6	C7	0.02311
C6	C11	0.02309
C7	C8	0.02287
C7	H5	0.01845
C8	C9	0.02316
C8	H4	0.01837
C9	C10	0.02291
C9	C12	0.02599
C10	C11	0.02302
C10	H7	0.01841
C11	H6	0.01835
C12	C13	0.02616
C12	N2	0.02500
C12	H13	0.01872
C13	C14	0.02633
C13	H10	0.01868
C13	H12	0.01862
C14	N1	0.02518
C14	C15	0.02662
C14	H11	0.01868
N1	N2	0.02419
N1	H9	0.01738
N2	H8	0.01734
C15	O1	0.02467
C15	C17	0.02603
C15	H19	0.01864
O1	X_C2	0.02447
C16	C17	0.02538
C16	H15	0.01863
C16	H16	0.01863
C16	X_C2	0.02575
C17	H14	0.01860
C17	H17	0.01864
H18	X_C2	0.01865
