data_NewTest_PM
_symmetry_space_group_name_H-M	'P1'
_cell_length_a	43.464912
_cell_length_b	43.464912
_cell_length_c	43.464912
_cell_angle_alpha	90.000000
_cell_angle_beta	90.000000
_cell_angle_gamma	90.000000
_symmetry_Int_Tables_number 1

loop_
_symmetry_equiv_pos_as_xyz
'x,y,z'

loop_
_atom_site_label
_atom_site_type_symbol
_atom_site_fract_x
_atom_site_fract_y
_atom_site_fract_z
X1	C	0.010081	-0.082511	0.013215
C1	C	-0.014928	-0.064566	0.015907
C2	C	-0.015871	-0.036152	0.003276
C3	C	0.011208	-0.021036	-0.002039
C4	C	0.036976	-0.038982	-0.002476
C5	C	0.036263	-0.069558	0.003069
C6	C	0.013210	0.013842	-0.004547
C7	C	-0.070720	-0.041168	-0.007054
F1	F	-0.039937	-0.074850	0.031413
H1	H	0.057406	-0.082258	-0.000382
H2	H	0.059454	-0.029710	-0.008205
H3	H	-0.083581	-0.034127	0.013238
H4	H	-0.084202	-0.035669	-0.027623
H5	H	-0.067591	-0.066199	-0.007353
O1	O	-0.043319	-0.023084	-0.006502
C8	C	-0.011109	0.033720	-0.002844
C9	C	-0.007451	0.064665	-0.000704
C10	C	0.020963	0.077710	0.000147
C11	C	0.044982	0.058177	-0.001878
C12	C	0.041278	0.027693	-0.004455
N1	N	0.028371	0.107941	0.004334
H6	H	-0.027766	0.079205	0.001665
H7	H	-0.034737	0.025668	-0.001786
H8	H	0.062537	0.014717	-0.004685
H9	H	0.068081	0.067357	-0.001118
X2	N	0.010403	0.129177	-0.002614

loop_
_geom_bond_atom_site_label_1
_geom_bond_atom_site_label_2
_geom_bond_distance
_ccdc_geom_bond_type
C1	C2	0.03111	. A
C1	F1	0.03117	. A
C2	C3	0.03146	. A
C2	O1	0.03193	. A
C3	C4	0.03140	. A
C3	C6	0.03503	. A
C4	C5	0.03108	. A
C4	H2	0.02498	. A
C5	H1	0.02490	. A
C6	C8	0.03146	. A
C6	C12	0.03130	. A
C7	H3	0.02503	. A
C7	H4	0.02520	. A
C7	H5	0.02523	. A
C7	O1	0.03284	. A
C8	C9	0.03123	. A
C8	H7	0.02499	. A
C9	C10	0.03128	. A
C9	H6	0.02509	. A
C10	C11	0.03103	. A
C10	N1	0.03141	. A
C11	C12	0.03082	. A
C11	H9	0.02487	. A
C12	H8	0.02491	. A
