data_NewTest_PM
_symmetry_space_group_name_H-M	'P1'
_cell_length_a	25.000000
_cell_length_b	25.000000
_cell_length_c	25.000000
_cell_angle_alpha	90.000000
_cell_angle_beta	90.000000
_cell_angle_gamma	90.000000
_symmetry_Int_Tables_number 1

loop_
_symmetry_equiv_pos_as_xyz
'x,y,z'

loop_
_atom_site_label
_atom_site_type_symbol
_atom_site_fract_x
_atom_site_fract_y
_atom_site_fract_z
X1	C	0.017526	-0.143454	0.022975
C1	C	-0.025954	-0.112254	0.027655
C2	C	-0.027594	-0.062854	0.005695
C3	C	0.019486	-0.036574	-0.003545
C4	C	0.064286	-0.067774	-0.004305
C5	C	0.063046	-0.120934	0.005335
C6	C	0.022966	0.024066	-0.007905
C7	C	-0.122954	-0.071574	-0.012265
F1	F	-0.069434	-0.130134	0.054615
H1	H	0.099806	-0.143014	-0.000665
H2	H	0.103366	-0.051654	-0.014265
H3	H	-0.145314	-0.059334	0.023015
H4	H	-0.146394	-0.062014	-0.048025
H5	H	-0.117514	-0.115094	-0.012785
O1	O	-0.075314	-0.040134	-0.011305
C8	C	-0.019314	0.058626	-0.004945
C9	C	-0.012954	0.112426	-0.001225
C10	C	0.036446	0.135106	0.000255
C11	C	0.078206	0.101146	-0.003265
C12	C	0.071766	0.048146	-0.007745
N1	N	0.049326	0.187666	0.007535
H6	H	-0.048274	0.137706	0.002895
H7	H	-0.060394	0.044626	-0.003105
H8	H	0.108726	0.025586	-0.008145
H9	H	0.118366	0.117106	-0.001945
X2	N	0.018086	0.224586	-0.004545

loop_
_geom_bond_atom_site_label_1
_geom_bond_atom_site_label_2
_geom_bond_distance
_ccdc_geom_bond_type
X1	C1	0.05372	. A
X1	C5	0.05376	. A
C1	C2	0.05409	. A
C1	F1	0.05419	. A
C2	C3	0.05470	. A
C2	O1	0.05552	. A
C3	C4	0.05460	. A
C3	C6	0.06090	. A
C4	C5	0.05404	. A
C4	H2	0.04343	. A
C5	H1	0.04330	. A
C6	C8	0.05469	. A
C6	C12	0.05442	. A
C7	H3	0.04353	. A
C7	H4	0.04381	. A
C7	H5	0.04386	. A
C7	O1	0.05709	. A
C8	C9	0.05430	. A
C8	H7	0.04344	. A
C9	C10	0.05438	. A
C9	H6	0.04363	. A
C10	C11	0.05394	. A
C10	N1	0.05460	. A
C11	C12	0.05358	. A
C11	H9	0.04324	. A
C12	H8	0.04330	. A
N1	X2	0.04985	. A
