data_54_PM
_symmetry_space_group_name_H-M	'P1'
_cell_length_a	53.840144
_cell_length_b	53.840144
_cell_length_c	53.840144
_cell_angle_alpha	90.000000
_cell_angle_beta	90.000000
_cell_angle_gamma	90.000000
_symmetry_Int_Tables_number 1

loop_
_symmetry_equiv_pos_as_xyz
'x,y,z'

loop_
_atom_site_label
_atom_site_type_symbol
_atom_site_fract_x
_atom_site_fract_y
_atom_site_fract_z
X1	C	0.012070	0.902043	0.997898
C2	C	0.989949	0.912500	0.992456
C3	C	0.985435	0.937239	0.992790
C4	C	0.002987	0.954420	0.998585
C5	C	0.025238	0.943907	0.004287
C6	C	0.029603	0.918926	0.003842
C7	C	0.995521	0.983618	0.999495
Cl8	Cl	0.955142	0.945449	0.985844
H9	H	0.974347	0.900575	0.987627
H10	H	0.048028	0.912202	0.008763
Br11	Br	0.052151	0.963967	0.014317
C12	C	0.010398	0.006872	0.989057
C13	C	0.002931	0.030516	0.005420
N14	N	0.982371	0.019910	0.020391
N15	N	0.988463	0.993387	0.024161
C16	C	0.995929	0.056871	0.992382
H17	H	0.972619	0.985326	0.030680
H18	H	0.966713	0.019353	0.009748
H19	H	0.030420	0.004160	0.990041
H20	H	0.018440	0.033970	0.018087
H21	H	0.005587	0.009880	0.969573
H22	H	0.978563	0.985103	0.988518
C23	C	0.000628	0.082949	0.006720
X24	N	0.990747	0.107763	0.996208
N25	N	0.981330	0.094929	0.983262
N26	N	0.985881	0.070467	0.980792
H27	H	0.020688	0.085159	0.009395
H28	H	0.992920	0.081036	0.025498
H29	H	0.004900	0.057503	0.974161

loop_
_geom_bond_atom_site_label_1
_geom_bond_atom_site_label_2
_geom_bond_distance
_ccdc_geom_bond_type
X1	C2	0.02507	. A
X1	C6	0.02506	. A
C2	C3	0.02515	. A
C2	H9	0.02022	. A
C3	C4	0.02524	. A
C3	Cl8	0.03215	. A
C4	C5	0.02526	. A
C4	C7	0.03015	. A
C5	C6	0.02536	. A
C5	Br11	0.03503	. A
C6	H10	0.02022	. A
C7	C12	0.02951	. A
C7	N15	0.02745	. A
C7	H22	0.02025	. A
C12	C13	0.02971	. A
C12	H19	0.02023	. A
C12	H21	0.02029	. A
C13	N14	0.02756	. A
C13	C16	0.03023	. A
C13	H20	0.02032	. A
N14	N15	0.02747	. A
N14	H18	0.01894	. A
N15	H17	0.01893	. A
C16	C23	0.03013	. A
C16	N26	0.02050	. A
C16	H29	0.02032	. A
C23	X24	0.02870	. A
C23	H27	0.02036	. A
C23	H28	0.02039	. A
X24	N25	0.02052	. A
N25	N26	0.02500	. A
