data_4_PM
_symmetry_space_group_name_H-M	'P1'
_cell_length_a	58.818410
_cell_length_b	58.818410
_cell_length_c	58.818410
_cell_angle_alpha	90.000000
_cell_angle_beta	90.000000
_cell_angle_gamma	90.000000
_symmetry_Int_Tables_number 1

loop_
_symmetry_equiv_pos_as_xyz
'x,y,z'

loop_
_atom_site_label
_atom_site_type_symbol
_atom_site_fract_x
_atom_site_fract_y
_atom_site_fract_z
X1	C	0.502964	0.392022	0.501303
C2	C	0.483888	0.403855	0.497052
C3	C	0.484534	0.426688	0.495777
C4	C	0.503882	0.439116	0.499177
C5	C	0.523025	0.426739	0.504295
C6	C	0.522294	0.403651	0.504975
C7	C	0.502096	0.464805	0.497545
H8	H	0.468366	0.434712	0.491952
H9	H	0.467719	0.395133	0.494621
H10	H	0.537800	0.394538	0.509191
Br11	Br	0.552047	0.438708	0.511963
C12	C	0.482103	0.475686	0.501524
C13	C	0.479910	0.498417	0.500283
C14	C	0.497931	0.512205	0.495624
C15	C	0.517806	0.501681	0.491238
C16	C	0.519574	0.478729	0.491714
C17	C	0.494752	0.537996	0.495777
H18	H	0.463214	0.505490	0.503241
H19	H	0.466733	0.466522	0.506029
H20	H	0.536099	0.472116	0.487259
H21	H	0.532852	0.511542	0.487327
C22	C	0.515273	0.554012	0.498327
C23	C	0.505514	0.575842	0.509344
N24	N	0.481899	0.569551	0.515414
N25	N	0.481100	0.545375	0.515380
C26	C	0.506653	0.597842	0.494400
H27	H	0.464846	0.539425	0.514292
H28	H	0.470848	0.575927	0.503615
H29	H	0.527922	0.546599	0.509905
H30	H	0.515035	0.579055	0.525088
H31	H	0.523620	0.557174	0.481989
H32	H	0.485843	0.542587	0.479966
O33	O	0.526018	0.611919	0.500351
C34	C	0.494888	0.636809	0.496134
C35	C	0.485792	0.613143	0.497307
H36	H	0.472803	0.609760	0.484437
H37	H	0.495874	0.642505	0.478419
H38	H	0.484211	0.648897	0.505451
H39	H	0.477937	0.611103	0.514088
H40	H	0.517415	0.634463	0.525224
X41	C	0.518282	0.634276	0.506590
H42	H	0.508642	0.593387	0.476412

loop_
_geom_bond_atom_site_label_1
_geom_bond_atom_site_label_2
_geom_bond_distance
_ccdc_geom_bond_type
X1	C2	0.02285	. A
X1	C6	0.02286	. A
C2	C3	0.02288	. A
C2	H9	0.01853	. A
C3	C4	0.02325	. A
C3	H8	0.01845	. A
C4	C5	0.02336	. A
C4	C7	0.02580	. A
C5	C6	0.02311	. A
C5	Br11	0.03232	. A
C6	H10	0.01847	. A
C7	C12	0.02311	. A
C7	C16	0.02309	. A
C12	C13	0.02287	. A
C12	H19	0.01845	. A
C13	C14	0.02316	. A
C13	H18	0.01837	. A
C14	C15	0.02291	. A
C14	C17	0.02599	. A
C15	C16	0.02302	. A
C15	H21	0.01841	. A
C16	H20	0.01835	. A
C17	C22	0.02616	. A
C17	N25	0.02500	. A
C17	H32	0.01872	. A
C22	C23	0.02633	. A
C22	H29	0.01868	. A
C22	H31	0.01862	. A
C23	N24	0.02518	. A
C23	C26	0.02662	. A
C23	H30	0.01868	. A
N24	N25	0.02419	. A
N24	H28	0.01738	. A
N25	H27	0.01734	. A
C26	O33	0.02467	. A
C26	C35	0.02603	. A
C26	H42	0.01864	. A
O33	X41	0.02447	. A
C34	C35	0.02538	. A
C34	H37	0.01863	. A
C34	H38	0.01863	. A
C34	X41	0.02575	. A
C35	H36	0.01860	. A
C35	H39	0.01864	. A
H40	X41	0.01865	. A
