data_5_PM
_symmetry_space_group_name_H-M	'P1'
_cell_length_a	43.464912
_cell_length_b	43.464912
_cell_length_c	43.464912
_cell_angle_alpha	90.000000
_cell_angle_beta	90.000000
_cell_angle_gamma	90.000000
_symmetry_Int_Tables_number 1

loop_
_symmetry_equiv_pos_as_xyz
'x,y,z'

loop_
_atom_site_label
_atom_site_type_symbol
_atom_site_fract_x
_atom_site_fract_y
_atom_site_fract_z
X_C1	X_C	0.013896	0.058438	0.010721
C1	C	-0.011112	0.076383	0.013413
C2	C	-0.012056	0.104797	0.000782
C3	C	0.015024	0.119913	-0.004532
C4	C	0.040792	0.101967	-0.004970
C5	C	0.040078	0.071391	0.000575
C6	C	0.017025	0.154792	-0.007040
C7	C	-0.066905	0.099782	-0.009548
F1	F	-0.036121	0.066099	0.028920
H1	H	0.061222	0.058691	-0.002876
H2	H	0.063269	0.111239	-0.010698
H3	H	-0.079765	0.106822	0.010744
H4	H	-0.080387	0.105280	-0.030116
H5	H	-0.063776	0.074750	-0.009847
O1	O	-0.039503	0.117865	-0.008996
C8	C	-0.007293	0.174670	-0.005338
C9	C	-0.003635	0.205614	-0.003198
C10	C	0.024779	0.218659	-0.002347
C11	C	0.048798	0.199126	-0.004371
C12	C	0.045094	0.168642	-0.006948
N1	N	0.032187	0.248890	0.001841
H6	H	-0.023950	0.220155	-0.000828
H7	H	-0.030921	0.166617	-0.004279
H8	H	0.066352	0.155666	-0.007178
H9	H	0.071897	0.208306	-0.003612
X_N1	X_N	0.014218	0.270126	-0.005108

loop_
_geom_bond_atom_site_label_1
_geom_bond_atom_site_label_2
_geom_bond_distance
X_C1	C1	0.03090
X_C1	C5	0.03092
C1	C2	0.03111
C1	F1	0.03117
C2	C3	0.03146
C2	O1	0.03193
C3	C4	0.03140
C3	C6	0.03503
C4	C5	0.03108
C4	H2	0.02498
C5	H1	0.02490
C6	C8	0.03146
C6	C12	0.03130
C7	H3	0.02503
C7	H4	0.02520
C7	H5	0.02523
C7	O1	0.03284
C8	C9	0.03123
C8	H7	0.02499
C9	C10	0.03128
C9	H6	0.02509
C10	C11	0.03103
C10	N1	0.03141
C11	C12	0.03082
C11	H9	0.02487
C12	H8	0.02491
N1	X_N1	0.02867
