data_NewTest_PM
_symmetry_space_group_name_H-M	'P1'
_cell_length_a	35.231254
_cell_length_b	35.231254
_cell_length_c	35.231254
_cell_angle_alpha	90.000000
_cell_angle_beta	90.000000
_cell_angle_gamma	90.000000
_symmetry_Int_Tables_number 1

loop_
_symmetry_equiv_pos_as_xyz
'x,y,z'

loop_
_atom_site_label
_atom_site_type_symbol
_atom_site_fract_x
_atom_site_fract_y
_atom_site_fract_z
X1	C	0.010915	-0.081963	-0.001177
C1	C	-0.023713	-0.064421	-0.000722
C2	C	-0.026495	-0.026075	0.001321
C3	C	0.004756	-0.003737	0.002258
C4	C	0.038902	-0.021108	0.000640
C5	C	0.042478	-0.059426	-0.001091
C6	C	0.000555	0.039180	0.007821
O1	O	-0.061691	-0.008647	0.003706
O2	O	-0.057093	-0.085596	-0.000722
Br1	Br	0.093370	-0.076967	-0.001801
H1	H	0.064532	-0.003850	0.001520
H2	H	-0.083291	-0.025337	0.006175
H3	H	-0.079034	-0.073220	-0.011565
C7	C	0.032089	0.067337	-0.000495
X2	N	0.008957	0.100744	-0.006513
N1	N	-0.026750	0.091406	-0.017866
N2	N	-0.030753	0.056011	-0.015056
H4	H	0.052327	0.071310	0.022694
H5	H	0.047218	0.061575	-0.027006
H6	H	-0.007279	0.042784	0.037880

loop_
_geom_bond_atom_site_label_1
_geom_bond_atom_site_label_2
_geom_bond_distance
_ccdc_geom_bond_type
C1	C2	0.03850	. A
C1	O2	0.03953	. A
C2	C3	0.03842	. A
C2	O1	0.03935	. A
C3	C4	0.03834	. A
C3	C6	0.04348	. A
C4	C5	0.03852	. A
C4	H1	0.03091	. A
C5	Br1	0.05384	. A
C6	C7	0.04309	. A
C6	N2	0.04227	. A
C6	H6	0.03127	. A
O1	H2	0.02741	. A
O2	H3	0.02742	. A
C7	H4	0.03103	. A
C7	H5	0.03106	. A
N1	N2	0.03573	. A
