data_64_PM
_symmetry_space_group_name_H-M	'P1'
_cell_length_a	35.774595
_cell_length_b	35.774595
_cell_length_c	35.774595
_cell_angle_alpha	90.000000
_cell_angle_beta	90.000000
_cell_angle_gamma	90.000000
_symmetry_Int_Tables_number 1

loop_
_symmetry_equiv_pos_as_xyz
'x,y,z'

loop_
_atom_site_label
_atom_site_type_symbol
_atom_site_fract_x
_atom_site_fract_y
_atom_site_fract_z
X1	C	0.011670	0.942015	0.997806
C2	C	0.982879	0.957529	0.979273
C3	C	0.975807	0.994203	0.982488
C4	C	0.998588	0.021401	0.998505
C5	C	0.032216	0.004099	0.009043
C6	C	0.037499	0.966278	0.010357
C7	C	0.992662	0.060871	0.000042
O8	O	0.943941	0.994008	0.000294
Cl9	Cl	0.948357	0.930806	0.957330
C10	C	0.064333	0.956774	0.023047
H11	H	0.054494	0.022547	0.018854
N12	N	0.092370	0.943357	0.015528
H13	H	0.945814	0.966139	0.004794
X14	C	0.964262	0.087566	0.001244
H15	H	0.935471	0.077586	0.000881
H16	H	0.019637	0.074819	0.000517

loop_
_geom_bond_atom_site_label_1
_geom_bond_atom_site_label_2
_geom_bond_distance
_ccdc_geom_bond_type
X1	C2	0.03759	. A
X1	C6	0.03759	. A
C2	C3	0.03749	. A
C2	Cl9	0.04886	. A
C3	C4	0.03893	. A
C3	O8	0.03650	. A
C4	C5	0.03926	. A
C4	C7	0.03994	. A
C5	C6	0.03821	. A
C5	H11	0.03054	. A
C6	C10	0.03117	. A
C7	X14	0.03900	. A
C7	H16	0.03037	. A
O8	H13	0.02829	. A
C10	N12	0.03198	. A
X14	H15	0.03047	. A
