data_NewTest_PM
_symmetry_space_group_name_H-M	'P1'
_cell_length_a	41.649986
_cell_length_b	41.649986
_cell_length_c	41.649986
_cell_angle_alpha	90.000000
_cell_angle_beta	90.000000
_cell_angle_gamma	90.000000
_symmetry_Int_Tables_number 1

loop_
_symmetry_equiv_pos_as_xyz
'x,y,z'

loop_
_atom_site_label
_atom_site_type_symbol
_atom_site_fract_x
_atom_site_fract_y
_atom_site_fract_z
X1	C	0.009593	-0.109140	-0.005762
C1	C	-0.019122	-0.094110	-0.004394
C2	C	-0.020803	-0.061962	-0.002281
C3	C	0.005896	-0.043594	-0.001224
C4	C	0.034948	-0.058528	-0.002833
C5	C	0.036412	-0.090917	-0.005354
N1	N	0.002126	-0.011397	0.004634
H1	H	-0.044404	-0.050869	-0.000648
F1	F	-0.047069	-0.110533	-0.004442
H2	H	0.060086	-0.101697	-0.006843
Br1	Br	0.074179	-0.035839	0.000144
N2	N	0.011226	0.008675	-0.015822
C6	C	0.009425	0.040944	-0.001200
O1	O	0.025824	0.067786	-0.015606
C7	C	-0.022892	0.088195	0.002809
C8	C	-0.025389	0.052012	0.000624
H3	H	-0.038786	0.045241	-0.021008
H4	H	-0.035545	0.099239	-0.017455
H5	H	-0.033624	0.097558	0.024898
H6	H	-0.037802	0.041448	0.021224
H7	H	0.023063	0.093621	0.025906
X2	C	0.013075	0.094821	0.001513
H8	H	0.019581	0.039047	0.023121

loop_
_geom_bond_atom_site_label_1
_geom_bond_atom_site_label_2
_geom_bond_distance
_ccdc_geom_bond_type
C1	C2	0.03226	. A
C1	F1	0.03242	. A
C2	C3	0.03242	. A
C2	H1	0.02613	. A
C3	C4	0.03270	. A
C3	N1	0.03294	. A
C4	C5	0.03252	. A
C4	Br1	0.04542	. A
C5	H2	0.02606	. A
N1	N2	0.03007	. A
N2	C6	0.03547	. A
C6	O1	0.03460	. A
C6	C8	0.03658	. A
C6	H8	0.02643	. A
C7	C8	0.03633	. A
C7	H4	0.02632	. A
C7	H5	0.02628	. A
C8	H3	0.02633	. A
C8	H6	0.02627	. A
