data_76_PM
_symmetry_space_group_name_H-M	'P1'
_cell_length_a	43.128605
_cell_length_b	43.128605
_cell_length_c	43.128605
_cell_angle_alpha	90.000000
_cell_angle_beta	90.000000
_cell_angle_gamma	90.000000
_symmetry_Int_Tables_number 1

loop_
_symmetry_equiv_pos_as_xyz
'x,y,z'

loop_
_atom_site_label
_atom_site_type_symbol
_atom_site_fract_x
_atom_site_fract_y
_atom_site_fract_z
X1	C	0.013972	0.939750	0.997412
C2	C	0.986403	0.952039	0.987419
C3	C	0.979911	0.982970	0.987744
C4	C	0.998715	0.005785	0.997922
C5	C	0.025960	0.993566	0.008519
C6	C	0.033449	0.962287	0.008240
C7	C	0.985685	0.041817	0.995534
H8	H	0.957304	0.989972	0.978910
C9	C	0.940749	0.922870	0.998363
C10	C	0.085572	0.948259	0.996554
C11	C	0.041610	0.011906	0.017445
C12	C	0.003793	0.074579	0.993911
X13	C	0.982253	0.101939	0.008171
N14	N	0.952992	0.083900	0.011162
N15	N	0.961733	0.051230	0.018327
H16	H	0.941816	0.038617	0.016472
H17	H	0.942674	0.082532	0.989946
H18	H	0.025357	0.073814	0.007035
H19	H	0.990531	0.106298	0.031728
H20	H	0.009706	0.079703	0.969820
H21	H	0.973280	0.041562	0.973391
N22	N	0.061736	0.026722	0.026256
H23	H	0.952574	0.907938	0.015080
H24	H	0.922965	0.909399	0.986306
H25	H	0.929852	0.942324	0.010397
O26	O	0.962800	0.934324	0.975687
H27	H	0.105049	0.936226	0.007406
H28	H	0.076715	0.934139	0.977426
H29	H	0.093224	0.970750	0.987767
O30	O	0.061620	0.952781	0.019648

loop_
_geom_bond_atom_site_label_1
_geom_bond_atom_site_label_2
_geom_bond_distance
_ccdc_geom_bond_type
X1	C2	0.03179	. A
X1	C6	0.03169	. A
C2	C3	0.03161	. A
C2	O26	0.03176	. A
C3	C4	0.03127	. A
C3	H8	0.02526	. A
C4	C5	0.03168	. A
C4	C7	0.03839	. A
C5	C6	0.03216	. A
C5	C11	0.02571	. A
C6	O30	0.03185	. A
C7	C12	0.03747	. A
C7	N15	0.03438	. A
C7	H21	0.02538	. A
C9	H23	0.02534	. A
C9	H24	0.02536	. A
C9	H25	0.02534	. A
C9	O26	0.03364	. A
C10	H27	0.02534	. A
C10	H28	0.02537	. A
C10	H29	0.02533	. A
C10	O30	0.03358	. A
C11	N22	0.02650	. A
C12	X13	0.03763	. A
C12	H18	0.02525	. A
C12	H20	0.02533	. A
X13	N14	0.03450	. A
X13	H19	0.02535	. A
N14	N15	0.03457	. A
N14	H17	0.02363	. A
N15	H16	0.02365	. A
