data_7_PM
_symmetry_space_group_name_H-M	'P1'
_cell_length_a	41.649986
_cell_length_b	41.649986
_cell_length_c	41.649986
_cell_angle_alpha	90.000000
_cell_angle_beta	90.000000
_cell_angle_gamma	90.000000
_symmetry_Int_Tables_number 1

loop_
_symmetry_equiv_pos_as_xyz
'x,y,z'

loop_
_atom_site_label
_atom_site_type_symbol
_atom_site_fract_x
_atom_site_fract_y
_atom_site_fract_z
X1	C	0.009593	0.890860	0.994238
C2	C	0.980878	0.905890	0.995606
C3	C	0.979197	0.938038	0.997719
C4	C	0.005896	0.956406	0.998776
C5	C	0.034948	0.941472	0.997167
C6	C	0.036412	0.909083	0.994646
N7	N	0.002126	0.988603	0.004634
H8	H	0.955596	0.949131	0.999352
F9	F	0.952931	0.889467	0.995558
H10	H	0.060086	0.898303	0.993157
Br11	Br	0.074179	0.964161	0.000144
N12	N	0.011226	0.008675	0.984178
C13	C	0.009425	0.040944	0.998800
O14	O	0.025824	0.067786	0.984394
C15	C	0.977108	0.088195	0.002809
C16	C	0.974611	0.052012	0.000624
H17	H	0.961214	0.045241	0.978992
H18	H	0.964455	0.099239	0.982545
H19	H	0.966376	0.097558	0.024898
H20	H	0.962198	0.041448	0.021224
H21	H	0.023063	0.093621	0.025906
X22	C	0.013075	0.094821	0.001513
H23	H	0.019581	0.039047	0.023121

loop_
_geom_bond_atom_site_label_1
_geom_bond_atom_site_label_2
_geom_bond_distance
_ccdc_geom_bond_type
X1	C2	0.03244	. A
X1	C6	0.03243	. A
C2	C3	0.03226	. A
C2	F9	0.03242	. A
C3	C4	0.03242	. A
C3	H8	0.02613	. A
C4	C5	0.03270	. A
C4	N7	0.03294	. A
C5	C6	0.03252	. A
C5	Br11	0.04542	. A
C6	H10	0.02606	. A
N7	N12	0.03007	. A
N12	C13	0.03547	. A
C13	O14	0.03460	. A
C13	C16	0.03658	. A
C13	H23	0.02643	. A
O14	X22	0.03445	. A
C15	C16	0.03633	. A
C15	H18	0.02632	. A
C15	H19	0.02628	. A
C15	X22	0.03659	. A
C16	H17	0.02633	. A
C16	H20	0.02627	. A
H21	X22	0.02639	. A
