data_NewTest_PM
_symmetry_space_group_name_H-M	'P1'
_cell_length_a	51.505488
_cell_length_b	51.505488
_cell_length_c	51.505488
_cell_angle_alpha	90.000000
_cell_angle_beta	90.000000
_cell_angle_gamma	90.000000
_symmetry_Int_Tables_number 1

loop_
_symmetry_equiv_pos_as_xyz
'x,y,z'

loop_
_atom_site_label
_atom_site_type_symbol
_atom_site_fract_x
_atom_site_fract_y
_atom_site_fract_z
X1	C	0.002482	-0.088501	0.001296
C1	C	-0.020292	-0.075629	0.001820
C2	C	-0.020681	-0.049651	0.003898
C3	C	0.001492	-0.035614	0.005664
C4	C	0.024169	-0.048913	0.004383
C5	C	0.024751	-0.074813	0.002111
C6	C	0.001026	-0.007034	0.005820
H1	H	-0.039824	-0.040778	0.003432
H2	H	-0.038776	-0.085666	0.000248
H3	H	0.043895	-0.083259	0.000694
H4	H	0.042847	-0.039244	0.004500
C7	C	-0.021943	0.005916	0.005567
C8	C	-0.022894	0.031020	-0.000451
C9	C	-0.000760	0.043757	-0.005150
C10	C	0.022519	0.032496	-0.001908
C11	C	0.023198	0.007120	0.003801
C12	C	-0.003187	0.069443	-0.012974
H5	H	-0.041688	0.040611	-0.001636
H6	H	-0.040562	-0.003287	0.008849
H7	H	0.042381	-0.001404	0.005451
Cl1	Cl	0.051681	0.049057	-0.005907
C13	C	-0.007129	0.092101	-0.014935
C14	C	-0.011361	0.120001	-0.010373
X2	C	-0.011342	0.142270	-0.004199

loop_
_geom_bond_atom_site_label_1
_geom_bond_atom_site_label_2
_geom_bond_distance
_ccdc_geom_bond_type
C1	C2	0.02606	. A
C1	H2	0.02109	. A
C2	C3	0.02630	. A
C2	H1	0.02111	. A
C3	C4	0.02632	. A
C3	C6	0.02858	. A
C4	C5	0.02601	. A
C4	H4	0.02103	. A
C5	H3	0.02097	. A
C6	C7	0.02637	. A
C6	C11	0.02638	. A
C7	C8	0.02583	. A
C7	H6	0.02103	. A
C8	C9	0.02597	. A
C8	H5	0.02113	. A
C9	C10	0.02606	. A
C9	C12	0.02696	. A
C10	C11	0.02602	. A
C10	Cl1	0.03377	. A
C11	H7	0.02106	. A
C12	C13	0.02308	. A
C13	C14	0.02859	. A
