data_8_PM
_symmetry_space_group_name_H-M	'P1'
_cell_length_a	51.505488
_cell_length_b	51.505488
_cell_length_c	51.505488
_cell_angle_alpha	90.000000
_cell_angle_beta	90.000000
_cell_angle_gamma	90.000000
_symmetry_Int_Tables_number 1

loop_
_symmetry_equiv_pos_as_xyz
'x,y,z'

loop_
_atom_site_label
_atom_site_type_symbol
_atom_site_fract_x
_atom_site_fract_y
_atom_site_fract_z
X_C1	X_C	0.003534	0.033472	0.000058
C1	C	-0.019241	0.046345	0.000582
C2	C	-0.019629	0.072322	0.002660
C3	C	0.002543	0.086360	0.004427
C4	C	0.025221	0.073060	0.003145
C5	C	0.025803	0.047160	0.000874
C6	C	0.002077	0.114939	0.004582
H1	H	-0.038773	0.081195	0.002194
H2	H	-0.037724	0.036307	-0.000990
H3	H	0.044947	0.038714	-0.000544
H4	H	0.043898	0.082729	0.003262
C7	C	-0.020891	0.127889	0.004330
C8	C	-0.021842	0.152993	-0.001689
C9	C	0.000291	0.165730	-0.006388
C10	C	0.023570	0.154469	-0.003145
C11	C	0.024250	0.129093	0.002563
C12	C	-0.002136	0.191416	-0.014212
H5	H	-0.040636	0.162585	-0.002873
H6	H	-0.039510	0.118686	0.007611
H7	H	0.043432	0.120570	0.004213
Cl1	Cl	0.052732	0.171030	-0.007145
C13	C	-0.006077	0.214074	-0.016173
C14	C	-0.010310	0.241974	-0.011610
X_C2	X_C	-0.010290	0.264244	-0.005436

loop_
_geom_bond_atom_site_label_1
_geom_bond_atom_site_label_2
_geom_bond_distance
X_C1	C1	0.02617
X_C1	C5	0.02615
C1	C2	0.02606
C1	H2	0.02109
C2	C3	0.02630
C2	H1	0.02111
C3	C4	0.02632
C3	C6	0.02858
C4	C5	0.02601
C4	H4	0.02103
C5	H3	0.02097
C6	C7	0.02637
C6	C11	0.02638
C7	C8	0.02583
C7	H6	0.02103
C8	C9	0.02597
C8	H5	0.02113
C9	C10	0.02606
C9	C12	0.02696
C10	C11	0.02602
C10	Cl1	0.03377
C11	H7	0.02106
C12	C13	0.02308
C13	C14	0.02859
C14	X_C2	0.02311
