data_90_PM
_symmetry_space_group_name_H-M	'P1'
_cell_length_a	46.833109
_cell_length_b	46.833109
_cell_length_c	46.833109
_cell_angle_alpha	90.000000
_cell_angle_beta	90.000000
_cell_angle_gamma	90.000000
_symmetry_Int_Tables_number 1

loop_
_symmetry_equiv_pos_as_xyz
'x,y,z'

loop_
_atom_site_label
_atom_site_type_symbol
_atom_site_fract_x
_atom_site_fract_y
_atom_site_fract_z
X1	C	0.022753	0.907436	0.009094
C2	C	0.002511	0.918197	0.027008
C3	C	0.993692	0.946340	0.026667
C4	C	0.005009	0.967137	0.009307
C5	C	0.024333	0.956098	0.991115
C6	C	0.031380	0.928062	0.991243
N7	N	0.995678	0.994532	0.009478
C8	C	0.975351	0.949841	0.041720
H9	H	0.991813	0.903144	0.041378
O10	O	0.039920	0.915101	0.969293
H11	H	0.032639	0.969251	0.973969
N12	N	0.009344	0.014304	0.995257
C13	C	0.994397	0.043813	0.989684
C14	C	0.014575	0.071145	0.986802
X15	C	0.996660	0.099266	0.994296
N16	N	0.967536	0.087223	0.992588
N17	N	0.970119	0.057970	0.004268
H18	H	0.951137	0.048041	0.000424
H19	H	0.962304	0.084234	0.971684
H20	H	0.032725	0.069394	0.001321
H21	H	0.000675	0.104326	0.016716
H22	H	0.022903	0.072255	0.965044
H23	H	0.985728	0.040568	0.968054
H24	H	0.025785	0.901756	0.979414
N25	N	0.951030	0.950567	0.044176

loop_
_geom_bond_atom_site_label_1
_geom_bond_atom_site_label_2
_geom_bond_distance
_ccdc_geom_bond_type
X1	C2	0.02909	. A
X1	C6	0.02861	. A
C2	C3	0.02949	. A
C2	H9	0.02340	. A
C3	C4	0.02936	. A
C3	C8	0.02399	. A
C4	C5	0.02874	. A
C4	N7	0.02894	. A
C5	C6	0.02891	. A
C5	H11	0.02315	. A
C6	O10	0.02688	. A
N7	N12	0.02793	. A
C8	N25	0.02445	. A
O10	H24	0.02192	. A
N12	C13	0.03354	. A
C13	C14	0.03409	. A
C13	N17	0.03166	. A
C13	H23	0.02353	. A
C14	X15	0.03417	. A
C14	H20	0.02331	. A
C14	H22	0.02332	. A
X15	N16	0.03156	. A
X15	H21	0.02333	. A
N16	N17	0.03160	. A
N16	H19	0.02176	. A
N17	H18	0.02176	. A
