data_8_PM
_symmetry_space_group_name_H-M	'P1'
_cell_length_a	51.505488
_cell_length_b	51.505488
_cell_length_c	51.505488
_cell_angle_alpha	90.000000
_cell_angle_beta	90.000000
_cell_angle_gamma	90.000000
_symmetry_Int_Tables_number 1

loop_
_symmetry_equiv_pos_as_xyz
'x,y,z'

loop_
_atom_site_label
_atom_site_type_symbol
_atom_site_fract_x
_atom_site_fract_y
_atom_site_fract_z
X1	C	0.460815	0.369832	0.626296
C2	C	0.438041	0.382705	0.626820
C3	C	0.437653	0.408682	0.628898
C4	C	0.459825	0.422720	0.630664
C5	C	0.482502	0.409420	0.629383
C6	C	0.483085	0.383520	0.627111
C7	C	0.459359	0.451299	0.630820
H8	H	0.418509	0.417555	0.628432
H9	H	0.419558	0.372667	0.625248
H10	H	0.502228	0.375074	0.625694
H11	H	0.501180	0.419089	0.629500
C12	C	0.436391	0.464249	0.630567
C13	C	0.435439	0.489353	0.624549
C14	C	0.457573	0.502090	0.619850
C15	C	0.480852	0.490829	0.623092
C16	C	0.481532	0.465453	0.628801
C17	C	0.455146	0.527777	0.612026
H18	H	0.416645	0.498945	0.623364
H19	H	0.417771	0.455046	0.633849
H20	H	0.500714	0.456930	0.630451
Cl21	Cl	0.510014	0.507390	0.619093
C22	C	0.451205	0.550434	0.610065
C23	C	0.446972	0.578334	0.614627
X24	C	0.446991	0.600604	0.620801

loop_
_geom_bond_atom_site_label_1
_geom_bond_atom_site_label_2
_geom_bond_distance
_ccdc_geom_bond_type
X1	C2	0.02617	. A
X1	C6	0.02615	. A
C2	C3	0.02606	. A
C2	H9	0.02109	. A
C3	C4	0.02630	. A
C3	H8	0.02111	. A
C4	C5	0.02632	. A
C4	C7	0.02858	. A
C5	C6	0.02601	. A
C5	H11	0.02103	. A
C6	H10	0.02097	. A
C7	C12	0.02637	. A
C7	C16	0.02638	. A
C12	C13	0.02583	. A
C12	H19	0.02103	. A
C13	C14	0.02597	. A
C13	H18	0.02113	. A
C14	C15	0.02606	. A
C14	C17	0.02696	. A
C15	C16	0.02602	. A
C15	Cl21	0.03377	. A
C16	H20	0.02106	. A
C17	C22	0.02308	. A
C22	C23	0.02859	. A
C23	X24	0.02311	. A
