data_9_PM
_symmetry_space_group_name_H-M	'P1'
_cell_length_a	30.447310
_cell_length_b	30.447310
_cell_length_c	30.447310
_cell_angle_alpha	90.000000
_cell_angle_beta	90.000000
_cell_angle_gamma	90.000000
_symmetry_Int_Tables_number 1

loop_
_symmetry_equiv_pos_as_xyz
'x,y,z'

loop_
_atom_site_label
_atom_site_type_symbol
_atom_site_fract_x
_atom_site_fract_y
_atom_site_fract_z
X_C1	X_C	-0.001117	0.074358	0.000887
C1	C	-0.041481	0.091962	-0.005485
C2	C	-0.046999	0.135381	-0.009525
C3	C	-0.012743	0.163331	-0.006602
C4	C	0.027687	0.145694	0.000591
C5	C	0.034584	0.101487	0.003678
N1	N	-0.018885	0.207605	-0.014287
F1	F	-0.087922	0.150982	-0.016750
H1	H	-0.070778	0.071566	-0.007882
C6	C	0.081452	0.086083	0.010838
N2	N	0.063651	0.175681	0.004434
H2	H	0.085689	0.050973	0.015666
H3	H	0.101585	0.095148	-0.017736
H4	H	0.095608	0.101323	0.040233
H5	H	0.095312	0.166747	0.000788
H6	H	0.057706	0.208229	-0.000099
X_N1	X_N	-0.017309	0.232664	0.018294

loop_
_geom_bond_atom_site_label_1
_geom_bond_atom_site_label_2
_geom_bond_distance
X_C1	C1	0.04450
X_C1	C5	0.04493
C1	C2	0.04395
C1	H1	0.03578
C2	C3	0.04431
C2	F1	0.04439
C3	C4	0.04469
C3	N1	0.04535
C4	C5	0.04485
C4	N2	0.04698
C5	C6	0.04985
N1	X_N1	0.04113
C6	H2	0.03569
C6	H3	0.03611
C6	H4	0.03601
N2	H5	0.03310
N2	H6	0.03340
