@<TRIPOS>MOLECULE
crystal.cif
47 49
SMALL
NO_CHARGES

@<TRIPOS>ATOM
1 X 1.512000 0.498000 -0.014000 O
2 X 0.769000 1.618000 -0.112000 C
3 X -0.363000 1.200000 -0.259000 O
4 X 0.730000 3.090000 -0.094000 X
5 X 2.503000 0.417000 0.000000 H
6 X -0.401000 3.787000 -0.320000 C
7 X -0.460000 5.126000 -0.283000 C
8 X 0.597000 5.934000 -0.030000 C
9 X 1.750000 5.222000 0.201000 C
10 X 1.792000 3.857000 0.173000 C
11 X 0.441000 7.327000 -0.028000 C
12 X -1.442000 5.517000 -0.511000 H
13 X -1.334000 3.278000 -0.547000 H
14 X 2.718000 3.338000 0.400000 H
15 X 4.154000 5.449000 -0.058000 C
16 X -0.768000 7.944000 -0.055000 C
17 X -0.967000 9.281000 -0.058000 C
18 X 0.063000 10.203000 -0.033000 C
19 X 1.294000 9.575000 -0.026000 C
20 X 1.447000 8.232000 -0.017000 C
21 X -0.142000 11.486000 0.495000 C
22 X -1.991000 9.649000 -0.066000 H
23 X -1.691000 7.380000 -0.043000 H
24 X 2.479000 7.927000 -0.051000 H
25 X 2.186000 10.195000 -0.046000 H
26 X -0.140000 12.636000 -0.227000 C
27 X -0.409000 14.081000 0.338000 C
28 X 0.024000 12.584000 -1.301000 H
29 X -0.325000 11.558000 1.564000 H
30 X 0.454000 15.304000 -0.151000 C
31 X -0.508000 16.549000 -0.302000 X
32 X -1.760000 16.036000 0.301000 N
33 X -1.783000 14.574000 0.098000 N
34 X -0.055000 17.961000 0.234000 C
35 X -2.084000 14.455000 -0.868000 H
36 X -1.777000 16.154000 1.313000 H
37 X 0.921000 15.083000 -1.114000 H
38 X -0.695000 16.685000 -1.371000 H
39 X 1.248000 15.504000 0.571000 H
40 X -0.285000 14.033000 1.424000 H
41 X 4.495000 4.495000 0.350000 H
42 X 4.908000 6.211000 0.155000 H
43 X 4.010000 5.369000 -1.139000 H
44 X 2.910000 5.846000 0.574000 O
45 X -0.580000 19.049000 -0.359000 O
46 X 0.689000 18.076000 1.186000 O
47 X -0.316000 19.979000 0.000000 H

@<TRIPOS>BOND
1 1 2 1
2 1 5 1
3 2 3 1
4 2 4 1
5 4 6 1
6 4 10 1
7 6 7 1
8 6 13 1
9 7 8 1
10 7 12 1
11 8 9 1
12 8 11 1
13 9 10 1
14 9 44 1
15 10 14 1
16 11 16 1
17 11 20 1
18 15 41 1
19 15 42 1
20 15 43 1
21 15 44 1
22 16 17 1
23 16 23 1
24 17 18 1
25 17 22 1
26 18 19 1
27 18 21 1
28 19 20 1
29 19 25 1
30 20 24 1
31 21 26 1
32 21 29 1
33 26 27 1
34 26 28 1
35 27 30 1
36 27 33 1
37 27 40 1
38 30 31 1
39 30 37 1
40 30 39 1
41 31 32 1
42 31 34 1
43 31 38 1
44 32 33 1
45 32 36 1
46 33 35 1
47 34 45 1
48 34 46 1
49 45 47 1

@<TRIPOS>CRYSIN
59.292221 59.292221 59.292221 1.570796 1.570796 1.570796 1 1
