data_NewTest_PM
_symmetry_space_group_name_H-M	'P1'
_cell_length_a	30.000000
_cell_length_b	30.000000
_cell_length_c	30.000000
_cell_angle_alpha	90.000000
_cell_angle_beta	90.000000
_cell_angle_gamma	90.000000
_symmetry_Int_Tables_number 1

loop_
_symmetry_equiv_pos_as_xyz
'x,y,z'

loop_
_atom_site_label
_atom_site_type_symbol
_atom_site_fract_x
_atom_site_fract_y
_atom_site_fract_z
X1	C	0.006196	-0.130500	0.002323
C1	C	-0.033538	-0.111267	0.011823
C2	C	-0.037638	-0.066067	0.007523
C3	C	-0.001971	-0.040100	-0.004643
C4	C	0.037396	-0.060833	-0.012543
C5	C	0.041329	-0.105400	-0.009877
C6	C	-0.005471	0.010667	-0.011243
C7	C	-0.080971	-0.046533	0.013990
Br1	Br	-0.082738	-0.146633	0.031290
H1	H	0.073129	-0.120700	-0.018510
H2	H	0.066662	-0.042067	-0.022943
C8	C	0.035196	0.040967	-0.006377
N1	N	0.012396	0.081767	0.006090
N2	N	-0.027204	0.072400	0.026423
N3	N	-0.035504	0.031833	0.021423
C9	C	0.026896	0.124967	-0.000143
H3	H	0.057429	0.030467	0.020657
H4	H	0.054096	0.043967	-0.037410
H5	H	-0.019738	0.015933	-0.044643
N4	N	-0.116338	-0.031333	0.018357
X2	C	0.001862	0.161633	0.004857
H6	H	-0.033104	0.159433	0.013857
H7	H	0.061629	0.127400	-0.010277

loop_
_geom_bond_atom_site_label_1
_geom_bond_atom_site_label_2
_geom_bond_distance
_ccdc_geom_bond_type
C1	C2	0.04559	. A
C1	Br1	0.06364	. A
C2	C3	0.04576	. A
C2	C7	0.04797	. A
C3	C4	0.04519	. A
C3	C6	0.05131	. A
C4	C5	0.04482	. A
C4	H2	0.03629	. A
C5	H1	0.03633	. A
C6	C8	0.05095	. A
C6	N3	0.04916	. A
C6	H5	0.03670	. A
C7	N4	0.03874	. A
C8	N1	0.04837	. A
C8	H3	0.03654	. A
C8	H4	0.03646	. A
N1	N2	0.04549	. A
N1	C9	0.04599	. A
N2	N3	0.04171	. A
C9	H7	0.03626	. A
