data_NewTest_PM
_symmetry_space_group_name_H-M	'P1'
_cell_length_a	35.231254
_cell_length_b	35.231254
_cell_length_c	35.231254
_cell_angle_alpha	90.000000
_cell_angle_beta	90.000000
_cell_angle_gamma	90.000000
_symmetry_Int_Tables_number 1

loop_
_symmetry_equiv_pos_as_xyz
'x,y,z'

loop_
_atom_site_label
_atom_site_type_symbol
_atom_site_fract_x
_atom_site_fract_y
_atom_site_fract_z
X1	C	0.010915	-0.081963	-0.001177
C2	C	-0.023713	-0.064421	-0.000722
C3	C	-0.026495	-0.026075	0.001321
C4	C	0.004756	-0.003737	0.002258
C5	C	0.038902	-0.021108	0.000640
C6	C	0.042478	-0.059426	-0.001091
C7	C	0.000555	0.039180	0.007821
O8	O	-0.061691	-0.008647	0.003706
O9	O	-0.057093	-0.085596	-0.000722
Br10	Br	0.093370	-0.076967	-0.001801
H11	H	0.064532	-0.003850	0.001520
H12	H	-0.083291	-0.025337	0.006175
H13	H	-0.079034	-0.073220	-0.011565
C14	C	0.032089	0.067337	-0.000495
X15	N	0.008957	0.100744	-0.006513
N16	N	-0.026750	0.091406	-0.017866
N17	N	-0.030753	0.056011	-0.015056
H18	H	0.052327	0.071310	0.022694
H19	H	0.047218	0.061575	-0.027006
H20	H	-0.007279	0.042784	0.037880

loop_
_geom_bond_atom_site_label_1
_geom_bond_atom_site_label_2
_geom_bond_distance
_ccdc_geom_bond_type
C2	C3	0.03850	. A
C2	O9	0.03953	. A
C3	C4	0.03842	. A
C3	O8	0.03935	. A
C4	C5	0.03834	. A
C4	C7	0.04348	. A
C5	C6	0.03852	. A
C5	H11	0.03091	. A
C6	Br10	0.05384	. A
C7	C14	0.04309	. A
C7	N17	0.04227	. A
C7	H20	0.03127	. A
O8	H12	0.02741	. A
O9	H13	0.02742	. A
C14	H18	0.03103	. A
C14	H19	0.03106	. A
N16	N17	0.03573	. A
