data_NewTest_PM
_symmetry_space_group_name_H-M	'P1'
_cell_length_a	15.000000
_cell_length_b	15.000000
_cell_length_c	15.000000
_cell_angle_alpha	90.000000
_cell_angle_beta	90.000000
_cell_angle_gamma	90.000000
_symmetry_Int_Tables_number 1

loop_
_symmetry_equiv_pos_as_xyz
'x,y,z'

loop_
_atom_site_label
_atom_site_type_symbol
_atom_site_fract_x
_atom_site_fract_y
_atom_site_fract_z
X1	C	0.029210	-0.239090	0.038292
C1	C	-0.043256	-0.187090	0.046092
C2	C	-0.045990	-0.104756	0.009492
C3	C	0.032477	-0.060956	-0.005908
C4	C	0.107144	-0.112956	-0.007174
C5	C	0.105077	-0.201556	0.008892
C6	C	0.038277	0.040110	-0.013174
C7	C	-0.204923	-0.119290	-0.020441
F1	F	-0.115723	-0.216890	0.091026
H1	H	0.166344	-0.238356	-0.001108
H2	H	0.172277	-0.086090	-0.023774
H3	H	-0.242190	-0.098890	0.038359
H4	H	-0.243990	-0.103356	-0.080041
H5	H	-0.195856	-0.191823	-0.021308
O1	O	-0.125523	-0.066890	-0.018841
C8	C	-0.032190	0.097710	-0.008241
C9	C	-0.021590	0.187377	-0.002041
C10	C	0.060744	0.225177	0.000426
C11	C	0.130344	0.168577	-0.005441
C12	C	0.119610	0.080244	-0.012908
N1	N	0.082210	0.312777	0.012559
H6	H	-0.080456	0.229510	0.004826
H7	H	-0.100656	0.074377	-0.005174
H8	H	0.181210	0.042644	-0.013574
H9	H	0.197277	0.195177	-0.003241
X2	N	0.030144	0.374310	-0.007574

loop_
_geom_bond_atom_site_label_1
_geom_bond_atom_site_label_2
_geom_bond_distance
_ccdc_geom_bond_type
X1	C1	0.08953	. A
X1	C5	0.08960	. A
C1	C2	0.09014	. A
C1	F1	0.09032	. A
C2	C3	0.09117	. A
C2	O1	0.09253	. A
C3	C4	0.09100	. A
C3	C6	0.10149	. A
C4	C5	0.09007	. A
C4	H2	0.07239	. A
C5	H1	0.07217	. A
C6	C8	0.09115	. A
C6	C12	0.09070	. A
C7	H3	0.07254	. A
C7	H4	0.07302	. A
C7	H5	0.07310	. A
C7	O1	0.09515	. A
C8	C9	0.09050	. A
C8	H7	0.07240	. A
C9	C10	0.09063	. A
C9	H6	0.07272	. A
C10	C11	0.08990	. A
C10	N1	0.09100	. A
C11	C12	0.08930	. A
C11	H9	0.07206	. A
C12	H8	0.07217	. A
N1	X2	0.08308	. A
