@<TRIPOS>MOLECULE
tobacco_crystal.cif
39 0
SMALL
NO_CHARGES

@<TRIPOS>ATOM
1 X 0.225923 -6.421641 -0.073949 X
2 X -0.905077 -5.724641 -0.299949 C
3 X -0.964077 -4.385641 -0.262949 C
4 X 0.092923 -3.577641 -0.009949 C
5 X 1.245923 -4.289641 0.221051 C
6 X 1.287923 -5.654641 0.193051 C
7 X -0.063077 -2.184641 -0.007949 C
8 X -1.946077 -3.994641 -0.490949 H
9 X -1.838077 -6.233641 -0.526949 H
10 X 2.213923 -6.173641 0.420051 H
11 X 3.649923 -4.062641 -0.037949 C
12 X -1.272077 -1.567641 -0.034949 C
13 X -1.471077 -0.230641 -0.037949 C
14 X -0.441077 0.691359 -0.012949 C
15 X 0.789923 0.063359 -0.005949 C
16 X 0.942923 -1.279641 0.003051 C
17 X -0.646077 1.974359 0.515051 C
18 X -2.495077 0.137359 -0.045949 H
19 X -2.195077 -2.131641 -0.022949 H
20 X 1.974923 -1.584641 -0.030949 H
21 X 1.681923 0.683359 -0.025949 H
22 X -0.644077 3.124359 -0.206949 C
23 X -0.913077 4.569359 0.358051 C
24 X -0.480077 3.072359 -1.280949 H
25 X -0.829077 2.046359 1.584051 H
26 X -0.050077 5.792359 -0.130949 C
27 X -1.012077 7.037359 -0.281949 X
28 X -2.264077 6.524359 0.321051 N
29 X -2.287077 5.062359 0.118051 N
30 X -2.588077 4.943359 -0.847949 H
31 X -2.281077 6.642359 1.333051 H
32 X 0.416923 5.571359 -1.093949 H
33 X -1.199077 7.173359 -1.350949 H
34 X 0.743923 5.992359 0.591051 H
35 X -0.789077 4.521359 1.444051 H
36 X 3.990923 -5.016641 0.370051 H
37 X 4.403923 -3.300641 0.175051 H
38 X 3.505923 -4.142641 -1.118949 H
39 X 2.405923 -3.665641 0.594051 O

@<TRIPOS>CRYSIN
59.292221 59.292221 59.292221 1.570796 1.570796 1.570796 1 1
