data_NewTest_PM
_symmetry_space_group_name_H-M	'P1'
_cell_length_a	30.000000
_cell_length_b	30.000000
_cell_length_c	30.000000
_cell_angle_alpha	90.000000
_cell_angle_beta	90.000000
_cell_angle_gamma	90.000000
_symmetry_Int_Tables_number 1

loop_
_symmetry_equiv_pos_as_xyz
'x,y,z'

loop_
_atom_site_label
_atom_site_type_symbol
_atom_site_fract_x
_atom_site_fract_y
_atom_site_fract_z
O1	O	0.047600	0.000033	0.021333
C1	C	0.011467	0.014100	-0.001600
O2	O	-0.012533	-0.011333	-0.022367
X1	X	0.005400	0.063433	-0.000833
H1	H	0.062867	0.022900	0.038567
C2	C	-0.034333	0.082667	0.008667
C3	C	-0.038433	0.127867	0.004367
C4	C	-0.002767	0.153833	-0.007800
C5	C	0.036600	0.133100	-0.015700
C6	C	0.040533	0.088533	-0.013033
C7	C	-0.006267	0.204600	-0.014400
C8	C	-0.081767	0.147400	0.010833
Br1	Br	-0.083533	0.047300	0.028133
H2	H	0.072333	0.073233	-0.021667
H3	H	0.065867	0.151867	-0.026100
C9	C	0.034400	0.234900	-0.009533
N1	N	0.011600	0.275700	0.002933
N2	N	-0.028000	0.266333	0.023267
N3	N	-0.036300	0.225767	0.018267
C10	C	0.026100	0.318900	-0.003300
H4	H	0.056633	0.224400	0.017500
H5	H	0.053300	0.237900	-0.040567
H6	H	-0.020533	0.209867	-0.047800
N4	N	-0.117133	0.162600	0.015200
X2	X	0.001067	0.355567	0.001700
C11	C	0.019100	0.400300	-0.005100
H7	H	-0.033900	0.353367	0.010700
H8	H	0.060833	0.321333	-0.013433
O3	O	-0.013467	0.430800	0.000067
O4	O	0.057200	0.410500	-0.014033
H9	H	0.001300	0.459533	-0.004667

loop_
_geom_bond_atom_site_label_1
_geom_bond_atom_site_label_2
_geom_bond_distance
O1	C1	0.04505
O1	H1	0.03245
C1	O2	0.04067
C1	X1	0.04971
X1	C2	0.04515
X1	C6	0.04487
C2	C3	0.04559
C2	Br1	0.06364
C3	C4	0.04576
C3	C8	0.04797
C4	C5	0.04519
C4	C7	0.05131
C5	C6	0.04482
C5	H3	0.03629
C6	H2	0.03633
C7	C9	0.05095
C7	N3	0.04916
C7	H6	0.03670
C8	N4	0.03874
C9	N1	0.04837
C9	H4	0.03654
C9	H5	0.03646
N1	N2	0.04549
N1	C10	0.04599
N2	N3	0.04171
C10	X2	0.04468
C10	H8	0.03626
X2	C11	0.04871
X2	H7	0.03617
C11	O3	0.04492
C11	O4	0.04044
O3	H9	0.03265
