data_NewTest_PM
_symmetry_space_group_name_H-M	'P1'
_cell_length_a	15.000000
_cell_length_b	15.000000
_cell_length_c	15.000000
_cell_angle_alpha	90.000000
_cell_angle_beta	90.000000
_cell_angle_gamma	90.000000
_symmetry_Int_Tables_number 1

loop_
_symmetry_equiv_pos_as_xyz
'x,y,z'

loop_
_atom_site_label
_atom_site_type_symbol
_atom_site_fract_x
_atom_site_fract_y
_atom_site_fract_z
O1	O	0.126527	0.232440	0.059880
C1	C	0.043667	0.266687	0.052033
O2	O	-0.017073	0.234047	0.095300
X1	X	0.026193	0.343680	-0.010160
H1	H	0.176120	0.255787	0.025887
C2	C	0.076287	0.427093	0.015233
C3	C	0.024007	0.492020	-0.041320
N1	N	-0.069107	0.464933	-0.026227
N2	N	-0.067500	0.371720	-0.010580
C4	C	0.044760	0.589833	-0.023227
H2	H	-0.102260	0.339407	-0.061680
H3	H	-0.091567	0.491747	0.034087
H4	H	0.149073	0.424320	0.001907
H5	H	0.040327	0.479260	-0.112747
H6	H	0.064253	0.442680	0.086887
H7	H	0.045567	0.323647	-0.079193
C5	C	-0.021120	0.652607	0.000340
C6	C	0.001300	0.741940	0.014627
X2	X	0.089853	0.770947	0.005880
C7	C	0.155660	0.708633	-0.017700
C8	C	0.133267	0.619400	-0.032293
C9	C	0.113073	0.865973	0.020647
H8	H	-0.051060	0.788433	0.032273
H9	H	-0.090407	0.634220	0.007087
H10	H	0.185480	0.573173	-0.050887
H11	H	0.224560	0.728867	-0.025213
O3	O	0.048947	0.925507	0.041980
O4	O	0.190247	0.891147	0.013240
H12	H	0.062567	0.987867	0.051387

loop_
_geom_bond_atom_site_label_1
_geom_bond_atom_site_label_2
_geom_bond_distance
O1	C1	0.09000
O1	H1	0.06450
C1	O2	0.08140
C1	X1	0.10051
X1	C2	0.10056
X1	N2	0.09780
X1	H7	0.07445
C2	C3	0.10073
C2	H4	0.07405
C2	H6	0.07431
C3	N1	0.09814
C3	C4	0.10161
C3	H5	0.07437
N1	N2	0.09453
N1	H3	0.06972
N2	H2	0.06974
C4	C5	0.09400
C4	C8	0.09375
C5	C6	0.09321
C5	H9	0.07200
C6	X2	0.09359
C6	H8	0.07221
X2	C7	0.09365
X2	C9	0.09893
C7	C8	0.09315
C7	H11	0.07220
C8	H10	0.07217
C9	O3	0.09006
C9	O4	0.08151
O3	H12	0.06452
