data_NewTest_PM
_symmetry_space_group_name_H-M	'P1'
_cell_length_a	35.231254
_cell_length_b	35.231254
_cell_length_c	35.231254
_cell_angle_alpha	90.000000
_cell_angle_beta	90.000000
_cell_angle_gamma	90.000000
_symmetry_Int_Tables_number 1

loop_
_symmetry_equiv_pos_as_xyz
'x,y,z'

loop_
_atom_site_label
_atom_site_type_symbol
_atom_site_fract_x
_atom_site_fract_y
_atom_site_fract_z
O1	O	0.038489	-0.003803	-0.001079
C1	C	0.004768	0.014277	-0.001419
O2	O	-0.023928	-0.005336	-0.001817
X1	X	0.005677	0.057534	-0.000880
H1	H	0.060742	0.012375	-0.000624
C2	C	-0.028952	0.075075	-0.000426
C3	C	-0.031733	0.113422	0.001618
C4	C	-0.000483	0.135760	0.002555
C5	C	0.033663	0.118389	0.000937
C6	C	0.037240	0.080071	-0.000795
C7	C	-0.004683	0.178677	0.008118
O3	O	-0.066929	0.130850	0.004002
O4	O	-0.062331	0.053901	-0.000426
Br1	Br	0.088132	0.062530	-0.001504
H2	H	0.059294	0.135647	0.001817
H3	H	-0.088529	0.114160	0.006472
H4	H	-0.084272	0.066276	-0.011268
C8	C	0.026851	0.206833	-0.000199
X2	X	0.003718	0.240241	-0.006216
N1	N	-0.031989	0.230903	-0.017570
N2	N	-0.035991	0.195508	-0.014760
C9	C	0.014135	0.277140	-0.000199
H5	H	0.047089	0.210807	0.022991
H6	H	0.041980	0.201071	-0.026709
H7	H	-0.012517	0.182281	0.038176
O5	O	-0.014646	0.302090	-0.005024
O6	O	0.045414	0.288324	0.009509
H8	H	-0.003718	0.326840	0.000993

loop_
_geom_bond_atom_site_label_1
_geom_bond_atom_site_label_2
_geom_bond_distance
O1	C1	0.03826
O1	H1	0.02752
C1	O2	0.03476
C1	X1	0.04327
X1	C2	0.03882
X1	C6	0.03878
C2	C3	0.03850
C2	O4	0.03953
C3	C4	0.03842
C3	O3	0.03935
C4	C5	0.03834
C4	C7	0.04348
C5	C6	0.03852
C5	H2	0.03091
C6	Br1	0.05384
C7	C8	0.04309
C7	N2	0.04227
C7	H7	0.03127
O3	H3	0.02741
O4	H4	0.02742
C8	X2	0.04108
C8	H5	0.03103
C8	H6	0.03106
X2	N1	0.03861
X2	C9	0.03881
N1	N2	0.03573
C9	O5	0.03839
C9	O6	0.03461
O5	H8	0.02772
