data_NewTest_PM
_symmetry_space_group_name_H-M	'P1'
_cell_length_a	15.000000
_cell_length_b	15.000000
_cell_length_c	15.000000
_cell_angle_alpha	90.000000
_cell_angle_beta	90.000000
_cell_angle_gamma	90.000000
_symmetry_Int_Tables_number 1

loop_
_symmetry_equiv_pos_as_xyz
'x,y,z'

loop_
_atom_site_label
_atom_site_type_symbol
_atom_site_fract_x
_atom_site_fract_y
_atom_site_fract_z
O1	O	0.079667	-0.071200	0.008200
C1	C	0.004267	-0.022200	0.007267
O2	O	-0.068533	-0.056600	0.018667
X1	X	0.017067	0.075200	-0.008000
H1	H	0.134267	-0.039933	-0.006867
C2	C	-0.058800	0.122600	-0.019267
C3	C	-0.055333	0.211133	-0.030733
C4	C	0.024067	0.253067	-0.031133
C5	C	0.099733	0.206333	-0.021333
C6	C	0.096667	0.117733	-0.009333
N1	N	0.027200	0.343000	-0.037267
H2	H	-0.116333	0.249333	-0.037867
H3	H	-0.124333	0.090600	-0.017667
H4	H	0.160200	0.084867	0.000733
H5	H	0.163067	0.241733	-0.020933
N2	N	0.017733	0.379133	0.037400
C7	C	0.012533	0.468933	0.028333
C8	C	-0.066467	0.509000	0.011867
C9	C	-0.066867	0.597600	-0.002467
C10	C	0.008267	0.648133	0.000733
C11	C	0.086067	0.605133	0.016933
C12	C	0.088000	0.517000	0.030933
C13	C	0.004467	0.746467	-0.008333
H6	H	-0.131533	0.626533	-0.016733
C14	C	-0.152733	0.456867	0.009133
H7	H	0.151267	0.483667	0.043267
H8	H	0.149867	0.638800	0.020067
C15	C	-0.074800	0.789867	-0.007667
C16	C	-0.080133	0.879133	-0.007667
C17	C	-0.005000	0.928333	-0.007600
C18	C	0.074867	0.887267	-0.011200
C19	C	0.079133	0.797667	-0.012267
C20	C	-0.008467	1.026533	-0.001867
H9	H	-0.145467	0.909933	-0.004933
H10	H	-0.138267	0.755600	-0.004733
H11	H	0.145400	0.768867	-0.014267
H12	H	0.136533	0.925533	-0.011667
H13	H	-0.211267	0.500467	0.011667
H14	H	-0.158267	0.411533	0.066200
H15	H	-0.157000	0.417867	-0.052467
O3	O	-0.092133	1.058533	-0.000067
O4	O	0.055400	1.076800	0.002533
X2	X	-0.084000	1.123133	0.005533

loop_
_geom_bond_atom_site_label_1
_geom_bond_atom_site_label_2
_geom_bond_distance
O1	C1	0.08993
O1	H1	0.06470
C1	O2	0.08132
C1	X1	0.09942
X1	C2	0.09016
X1	C6	0.09026
C2	C3	0.08934
C2	H3	0.07295
C3	C4	0.08979
C3	H2	0.07233
C4	C5	0.08947
C4	N1	0.09020
C5	C6	0.08946
C5	H5	0.07256
C6	H4	0.07224
N1	N2	0.08349
N2	C7	0.09041
C7	C8	0.09010
C7	C12	0.08951
C8	C9	0.08975
C8	C14	0.10083
C9	C10	0.09060
C9	H6	0.07227
C10	C11	0.09036
C10	C13	0.09882
C11	C12	0.08926
C11	H8	0.07221
C12	H7	0.07257
C13	C15	0.09037
C13	C19	0.09062
C14	H13	0.07303
C14	H14	0.07309
C14	H15	0.07303
C15	C16	0.08943
C15	H10	0.07219
C16	C17	0.08981
C16	H9	0.07228
C17	C18	0.08988
C17	C20	0.09843
C18	C19	0.08971
C18	H12	0.07258
C19	H11	0.07228
C20	O3	0.08960
C20	O4	0.08139
C20	X2	0.12285
O3	X2	0.06535
