data_NewTest_PM
_symmetry_space_group_name_H-M	'P1'
_cell_length_a	28.000000
_cell_length_b	28.000000
_cell_length_c	28.000000
_cell_angle_alpha	90.000000
_cell_angle_beta	90.000000
_cell_angle_gamma	90.000000
_symmetry_Int_Tables_number 1

loop_
_symmetry_equiv_pos_as_xyz
'x,y,z'

loop_
_atom_site_label
_atom_site_type_symbol
_atom_site_fract_x
_atom_site_fract_y
_atom_site_fract_z
O1	O	0.066786	-0.003214	0.000393
C1	C	0.024036	0.018821	-0.001107
O2	O	-0.012929	-0.004179	-0.003893
X1	X	0.024857	0.072286	0.000857
H1	H	0.094786	0.016643	0.005929
C2	C	-0.017286	0.094286	0.010107
C3	C	-0.020500	0.142571	0.012536
C4	C	0.019250	0.168786	0.003964
C5	C	0.061286	0.147000	-0.004929
C6	C	0.064357	0.099071	-0.006071
C7	C	0.018000	0.219607	0.004429
C8	C	-0.102357	0.161714	-0.002857
H2	H	-0.049214	0.073071	0.016714
H3	H	0.099357	0.083929	-0.013036
H4	H	0.093321	0.168250	-0.010929
C9	C	0.020643	0.262429	0.004536
N1	N	0.029071	0.309286	0.005214
N2	N	-0.007393	0.332750	-0.003893
N3	N	0.005571	0.380500	-0.001357
X2	X	-0.029393	0.407143	-0.007036
C10	C	-0.015143	0.453643	-0.002750
H5	H	-0.125071	0.132321	0.009179
H6	H	-0.093071	0.157679	-0.040571
H7	H	-0.122714	0.194929	0.001143
O3	O	-0.061714	0.165607	0.027286
O4	O	-0.052857	0.483750	-0.002107
O5	O	0.025143	0.470250	0.000714
H8	H	-0.037286	0.514821	0.001750

loop_
_geom_bond_atom_site_label_1
_geom_bond_atom_site_label_2
_geom_bond_distance
O1	C1	0.04812
O1	H1	0.03477
C1	O2	0.04362
C1	X1	0.05351
X1	C2	0.04843
X1	C6	0.04823
C2	C3	0.04845
C2	H2	0.03890
C3	C4	0.04838
C3	O3	0.04947
C4	C5	0.04817
C4	C7	0.05084
C5	C6	0.04804
C5	H4	0.03891
C6	H3	0.03877
C7	C9	0.04290
C8	H5	0.03905
C8	H6	0.03905
C8	H7	0.03916
C8	O3	0.05075
C9	N1	0.04761
N1	N2	0.04431
N2	N3	0.04954
N3	X2	0.04432
X2	C10	0.04882
C10	O4	0.04826
C10	O5	0.04371
O4	H8	0.03497
