data_NewTest_PM
_symmetry_space_group_name_H-M	'P1'
_cell_length_a	15.000000
_cell_length_b	15.000000
_cell_length_c	15.000000
_cell_angle_alpha	90.000000
_cell_angle_beta	90.000000
_cell_angle_gamma	90.000000
_symmetry_Int_Tables_number 1

loop_
_symmetry_equiv_pos_as_xyz
'x,y,z'

loop_
_atom_site_label
_atom_site_type_symbol
_atom_site_fract_x
_atom_site_fract_y
_atom_site_fract_z
O1	O	0.072133	-0.019200	0.017800
C1	C	-0.002200	0.030200	0.026400
O2	O	-0.073600	-0.007667	0.039267
X1	X	0.002600	0.130200	0.020067
H1	H	0.131733	0.006200	0.012133
C2	C	-0.071133	0.172733	0.050067
C3	C	-0.076733	0.262267	0.049533
C4	C	-0.011533	0.313733	0.013667
C5	C	0.059533	0.269933	-0.023467
C6	C	0.069200	0.180200	-0.014667
C7	C	-0.019533	0.413267	0.014867
H2	H	-0.136467	0.292067	0.078000
H3	H	-0.127400	0.135267	0.076867
C8	C	0.151533	0.139933	-0.039067
N1	N	0.124933	0.317600	-0.075800
N2	N	0.216867	0.099800	-0.049200
H4	H	0.152467	0.282867	-0.127267
H5	H	0.103133	0.377333	-0.099800
C9	C	-0.097933	0.456600	0.003800
C10	C	-0.101267	0.546333	0.000000
C11	C	-0.026333	0.596333	0.004333
C12	C	0.053400	0.555067	0.016867
C13	C	0.053733	0.465333	0.025533
C14	C	-0.034333	0.695400	-0.006200
H6	H	-0.166267	0.577400	-0.009067
H7	H	-0.160200	0.420267	-0.003000
H8	H	0.117867	0.433667	0.038600
C15	C	0.144067	0.599467	0.016533
H9	H	0.167133	0.612533	0.084400
H10	H	0.193200	0.556000	-0.016267
H11	H	0.146733	0.660933	-0.022133
O3	O	-0.118533	0.725467	0.000933
O4	O	0.025667	0.749000	-0.020067
X2	X	-0.111733	0.789867	-0.007733

loop_
_geom_bond_atom_site_label_1
_geom_bond_atom_site_label_2
_geom_bond_distance
O1	C1	0.08966
O1	H1	0.06503
C1	O2	0.08184
C1	X1	0.10032
X1	C2	0.09025
X1	C6	0.09023
C2	C3	0.08971
C2	H3	0.07272
C3	C4	0.09048
C3	H2	0.07257
C4	C5	0.09137
C4	C7	0.09986
C5	C6	0.09068
C5	N1	0.09637
C6	C8	0.09484
C7	C9	0.09026
C7	C13	0.09051
C8	N2	0.07734
N1	H4	0.06792
N1	H5	0.06797
C9	C10	0.08988
C9	H7	0.07241
C10	C11	0.09019
C10	H6	0.07261
C11	C12	0.09065
C11	C14	0.09995
C12	C13	0.09015
C12	C15	0.10096
C13	H8	0.07271
C14	O3	0.08969
C14	O4	0.08164
C14	X2	0.12214
C15	H9	0.07286
C15	H10	0.07334
C15	H11	0.07267
O3	X2	0.06534
