data_4_PM
_symmetry_space_group_name_H-M	'P1'
_cell_length_a	43.128605
_cell_length_b	43.128605
_cell_length_c	43.128605
_cell_angle_alpha	90.000000
_cell_angle_beta	90.000000
_cell_angle_gamma	90.000000
_symmetry_Int_Tables_number 1

loop_
_symmetry_equiv_pos_as_xyz
'x,y,z'

loop_
_atom_site_label
_atom_site_type_symbol
_atom_site_fract_x
_atom_site_fract_y
_atom_site_fract_z
X1	C	0.023782	0.921595	0.000291
C2	C	0.994381	0.932957	0.005392
C3	C	0.986684	0.964189	0.004697
C4	C	0.008061	0.987352	0.999967
C5	C	0.037137	0.975620	0.997370
C6	C	0.044858	0.944689	0.997718
C7	C	0.000132	0.024822	0.993614
C8	C	0.952391	0.973348	0.008314
Cl9	Cl	0.965306	0.906153	0.013948
C10	C	0.074027	0.937130	0.994054
H11	H	0.055663	0.992268	0.993660
H12	H	0.949516	0.989903	0.027211
H13	H	0.943742	0.983526	0.986774
H14	H	0.935998	0.955030	0.013855
C15	C	0.018519	0.055752	0.003792
X16	C	0.996909	0.085385	0.994866
N17	N	0.966905	0.071403	0.003839
N18	N	0.968343	0.037064	0.000245
H19	H	0.952878	0.031430	0.983319
H20	H	0.963010	0.074557	0.026932
H21	H	0.041009	0.057074	0.992199
H22	H	0.997071	0.087147	0.969592
H23	H	0.022623	0.055312	0.028811
H24	H	0.001685	0.025935	0.968340
N25	N	0.099370	0.930360	0.991202

loop_
_geom_bond_atom_site_label_1
_geom_bond_atom_site_label_2
_geom_bond_distance
_ccdc_geom_bond_type
X1	C2	0.03193	. A
X1	C6	0.03137	. A
C2	C3	0.03217	. A
C2	Cl9	0.04046	. A
C3	C4	0.03187	. A
C3	C8	0.03568	. A
C4	C5	0.03146	. A
C4	C7	0.03882	. A
C5	C6	0.03188	. A
C5	H11	0.02518	. A
C6	C10	0.03035	. A
C7	C15	0.03740	. A
C7	N18	0.03470	. A
C7	H24	0.02535	. A
C8	H12	0.02529	. A
C8	H13	0.02535	. A
C8	H14	0.02520	. A
C10	N25	0.02639	. A
C15	X16	0.03775	. A
C15	H21	0.02534	. A
C15	H23	0.02536	. A
X16	N17	0.03430	. A
X16	H22	0.02534	. A
N17	N18	0.03456	. A
N17	H20	0.02363	. A
N18	H19	0.02361	. A
