data_6_PM
_symmetry_space_group_name_H-M	'P1'
_cell_length_a	60.372004
_cell_length_b	60.372004
_cell_length_c	60.372004
_cell_angle_alpha	90.000000
_cell_angle_beta	90.000000
_cell_angle_gamma	90.000000
_symmetry_Int_Tables_number 1

loop_
_symmetry_equiv_pos_as_xyz
'x,y,z'

loop_
_atom_site_label
_atom_site_type_symbol
_atom_site_fract_x
_atom_site_fract_y
_atom_site_fract_z
X1	C	0.016229	0.903336	0.001115
C2	C	0.996584	0.915427	0.999889
C3	C	0.995772	0.938236	0.999375
C4	C	0.013380	0.952133	0.999905
C5	C	0.032494	0.940207	0.000618
C6	C	0.033786	0.917432	0.001131
C7	C	0.011707	0.975223	0.999607
H8	H	0.979506	0.946038	0.998514
C9	C	0.973427	0.904744	0.998100
H10	H	0.050168	0.910061	0.001976
H11	H	0.048015	0.949317	0.000999
C12	C	0.009388	0.996409	0.999607
C13	C	0.006539	0.020940	0.999806
C14	C	0.003491	0.042042	0.000551
C15	C	0.997047	0.067882	0.003930
H16	H	0.960458	0.916537	0.993677
H17	H	0.973046	0.891840	0.985379
H18	H	0.968342	0.897323	0.013836
C19	C	0.011806	0.090558	0.001645
X20	C	0.996584	0.112373	0.995019
N21	N	0.974852	0.100944	0.998216
N22	N	0.977585	0.077059	0.991888
H23	H	0.963108	0.069290	0.995814
H24	H	0.971307	0.100364	0.014680
H25	H	0.020419	0.093540	0.017281
H26	H	0.998522	0.114609	0.977163
H27	H	0.024477	0.088190	0.988957
H28	H	0.991962	0.067948	0.021323

loop_
_geom_bond_atom_site_label_1
_geom_bond_atom_site_label_2
_geom_bond_distance
_ccdc_geom_bond_type
X1	C2	0.02310	. A
X1	C6	0.02252	. A
C2	C3	0.02283	. A
C2	C9	0.02556	. A
C3	C4	0.02244	. A
C3	H8	0.01806	. A
C4	C5	0.02254	. A
C4	C7	0.02315	. A
C5	C6	0.02282	. A
C5	H11	0.01800	. A
C6	H10	0.01798	. A
C7	C12	0.02131	. A
C9	H16	0.01808	. A
C9	H17	0.01812	. A
C9	H18	0.01813	. A
C12	C13	0.02470	. A
C13	C14	0.02133	. A
C14	C15	0.02684	. A
C15	C19	0.02715	. A
C15	N22	0.02466	. A
C15	H28	0.01812	. A
C19	X20	0.02741	. A
C19	H25	0.01810	. A
C19	H27	0.01809	. A
X20	N21	0.02476	. A
X20	H26	0.01810	. A
N21	N22	0.02486	. A
N21	H24	0.01685	. A
N22	H23	0.01689	. A
