data_pcu_v1-6c_Zn_1_Ch_1-64_fer_tobacco
_audit_creation_date              2021-02-03
_audit_creation_method            'tobacco_3.0'
_symmetry_space_group_name_H-M    'P1'
_symmetry_Int_Tables_number       1
_symmetry_cell_setting            triclinic
loop_
_symmetry_equiv_pos_as_xyz
  x,y,z
_cell_length_a                    31.446507657653857
_cell_length_b                    31.446507657653857
_cell_length_c                    31.446507657653857
_cell_angle_alpha                 90.0
_cell_angle_beta                  90.0
_cell_angle_gamma                 90.0
loop_
_atom_site_label
_atom_site_type_symbol
_atom_site_fract_x
_atom_site_fract_y
_atom_site_fract_z
_atom_site_charge
Zn1       Zn   -0.0356541977   -0.0356541977    0.0356541977          1.4972
Zn2       Zn    0.0356541977    0.0356541977    0.0356541977          1.4936
Zn3       Zn    0.0356541977   -0.0356541977   -0.0356541977          1.4911
Zn4       Zn   -0.0356541977    0.0356541977   -0.0356541977          1.4948
O5         O    0.0000000000    0.0000000000    0.0000000000         -2.0602
O6         O   -0.0262032277   -0.0262032277    0.0952919807         -0.9665
O7         O    0.0952919807    0.0262032277    0.0262032277         -0.9647
O8         O    0.0262032277   -0.0952919807   -0.0262032277         -0.9599
O9         O    0.0262032277    0.0262032277    0.0952919807         -0.9667
O10        O   -0.0262032277   -0.0952919807    0.0262032277         -0.9626
O11        O    0.0952919807   -0.0262032277   -0.0262032277         -0.9685
O12        O   -0.0262032277    0.0262032277   -0.0952919807         -0.9624
O13        O    0.0262032277    0.0952919807    0.0262032277           -0.97
O14        O    0.0262032277   -0.0262032277   -0.0952919807         -0.9639
O15        O   -0.0262032277    0.0952919807   -0.0262032277         -0.9685
O16        O   -0.0952919807    0.0262032277   -0.0262032277         -0.9676
O17        O   -0.0952919807   -0.0262032277    0.0262032277         -0.9655
C18        C   -0.0000000000   -0.0000000000    0.1139331604          0.5524
C19        C    0.1139331604   -0.0000000000   -0.0000000000          0.5573
C20        C   -0.0000000000   -0.1139331604    0.0000000000          0.5469
C21        C    0.0000000000    0.0000000000   -0.1139331604          0.5506
C22        C    0.0000000000    0.1139331604   -0.0000000000           0.562
C23        C   -0.1139331604    0.0000000000    0.0000000000          0.5525
Zn24      Zn    0.9643458023    0.0356541977    0.4643458023          1.4972
Zn25      Zn    1.0356541977   -0.0356541977    0.4643458023          1.4936
Zn26      Zn    1.0356541977    0.0356541977    0.5356541977          1.4911
Zn27      Zn    0.9643458023   -0.0356541977    0.5356541977          1.4948
O28        O    1.0000000000    0.0000000000    0.5000000000         -2.0602
O29        O    0.9737967723    0.0262032277    0.4047080193         -0.9665
O30        O    1.0952919807   -0.0262032277    0.4737967723         -0.9647
O31        O    1.0262032277    0.0952919807    0.5262032277         -0.9599
O32        O    1.0262032277   -0.0262032277    0.4047080193         -0.9667
O33        O    0.9737967723    0.0952919807    0.4737967723         -0.9626
O34        O    1.0952919807    0.0262032277    0.5262032277         -0.9685
O35        O    0.9737967723   -0.0262032277    0.5952919807         -0.9624
O36        O    1.0262032277   -0.0952919807    0.4737967723           -0.97
O37        O    1.0262032277    0.0262032277    0.5952919807         -0.9639
O38        O    0.9737967723   -0.0952919807    0.5262032277         -0.9685
O39        O    0.9047080193   -0.0262032277    0.5262032277         -0.9676
O40        O    0.9047080193    0.0262032277    0.4737967723         -0.9655
C41        C    1.0000000000    0.0000000000    0.3860668396          0.5524
C42        C    1.1139331604    0.0000000000    0.5000000000          0.5573
C43        C    1.0000000000    0.1139331604    0.5000000000          0.5469
C44        C    1.0000000000    0.0000000000    0.6139331604          0.5506
C45        C    1.0000000000   -0.1139331604    0.5000000000           0.562
C46        C    0.8860668396    0.0000000000    0.5000000000          0.5525
Zn47      Zn    1.0356541977    0.4643458023   -0.0356541977          1.4972
Zn48      Zn    0.9643458023    0.4643458023    0.0356541977          1.4936
Zn49      Zn    1.0356541977    0.5356541977    0.0356541977          1.4911
Zn50      Zn    0.9643458023    0.5356541977   -0.0356541977          1.4948
O51        O    1.0000000000    0.5000000000    0.0000000000         -2.0602
O52        O    1.0262032277    0.4047080193   -0.0262032277         -0.9665
O53        O    0.9737967723    0.4737967723    0.0952919807         -0.9647
O54        O    1.0952919807    0.5262032277    0.0262032277         -0.9599
O55        O    0.9737967723    0.4047080193    0.0262032277         -0.9667
O56        O    1.0952919807    0.4737967723   -0.0262032277         -0.9626
O57        O    1.0262032277    0.5262032277    0.0952919807         -0.9685
O58        O    0.9737967723    0.5952919807   -0.0262032277         -0.9624
O59        O    0.9047080193    0.4737967723    0.0262032277           -0.97
O60        O    1.0262032277    0.5952919807    0.0262032277         -0.9639
O61        O    0.9047080193    0.5262032277   -0.0262032277         -0.9685
O62        O    0.9737967723    0.5262032277   -0.0952919807         -0.9676
O63        O    1.0262032277    0.4737967723   -0.0952919807         -0.9655
C64        C    1.0000000000    0.3860668396    0.0000000000          0.5524
C65        C    1.0000000000    0.5000000000    0.1139331604          0.5573
C66        C    1.1139331604    0.5000000000    0.0000000000          0.5469
C67        C    1.0000000000    0.6139331604    0.0000000000          0.5506
C68        C    0.8860668396    0.5000000000    0.0000000000           0.562
C69        C    1.0000000000    0.5000000000   -0.1139331604          0.5525
Zn70      Zn    0.9643458023    0.4643458023    0.5356541977          1.4972
Zn71      Zn    1.0356541977    0.4643458023    0.4643458023          1.4936
Zn72      Zn    0.9643458023    0.5356541977    0.4643458023          1.4911
Zn73      Zn    1.0356541977    0.5356541977    0.5356541977          1.4948
O74        O    1.0000000000    0.5000000000    0.5000000000         -2.0602
O75        O    0.9737967723    0.4047080193    0.5262032277         -0.9665
O76        O    1.0262032277    0.4737967723    0.4047080193         -0.9647
O77        O    0.9047080193    0.5262032277    0.4737967723         -0.9599
O78        O    1.0262032277    0.4047080193    0.4737967723         -0.9667
O79        O    0.9047080193    0.4737967723    0.5262032277         -0.9626
O80        O    0.9737967723    0.5262032277    0.4047080193         -0.9685
O81        O    1.0262032277    0.5952919807    0.5262032277         -0.9624
O82        O    1.0952919807    0.4737967723    0.4737967723           -0.97
O83        O    0.9737967723    0.5952919807    0.4737967723         -0.9639
O84        O    1.0952919807    0.5262032277    0.5262032277         -0.9685
O85        O    1.0262032277    0.5262032277    0.5952919807         -0.9676
O86        O    0.9737967723    0.4737967723    0.5952919807         -0.9655
C87        C    1.0000000000    0.3860668396    0.5000000000          0.5524
C88        C    1.0000000000    0.5000000000    0.3860668396          0.5573
C89        C    0.8860668396    0.5000000000    0.5000000000          0.5469
C90        C    1.0000000000    0.6139331604    0.5000000000          0.5506
C91        C    1.1139331604    0.5000000000    0.5000000000           0.562
C92        C    1.0000000000    0.5000000000    0.6139331604          0.5525
Zn93      Zn    0.4643458023    0.9643458023   -0.0356541977          1.4972
Zn94      Zn    0.4643458023    1.0356541977    0.0356541977          1.4936
Zn95      Zn    0.5356541977    0.9643458023    0.0356541977          1.4911
Zn96      Zn    0.5356541977    1.0356541977   -0.0356541977          1.4948
O97        O    0.5000000000    1.0000000000    0.0000000000         -2.0602
O98        O    0.4047080193    0.9737967723   -0.0262032277         -0.9665
O99        O    0.4737967723    1.0262032277    0.0952919807         -0.9647
O100       O    0.5262032277    0.9047080193    0.0262032277         -0.9599
O101       O    0.4047080193    1.0262032277    0.0262032277         -0.9667
O102       O    0.4737967723    0.9047080193   -0.0262032277         -0.9626
O103       O    0.5262032277    0.9737967723    0.0952919807         -0.9685
O104       O    0.5952919807    1.0262032277   -0.0262032277         -0.9624
O105       O    0.4737967723    1.0952919807    0.0262032277           -0.97
O106       O    0.5952919807    0.9737967723    0.0262032277         -0.9639
O107       O    0.5262032277    1.0952919807   -0.0262032277         -0.9685
O108       O    0.5262032277    1.0262032277   -0.0952919807         -0.9676
O109       O    0.4737967723    0.9737967723   -0.0952919807         -0.9655
C110       C    0.3860668396    1.0000000000    0.0000000000          0.5524
C111       C    0.5000000000    1.0000000000    0.1139331604          0.5573
C112       C    0.5000000000    0.8860668396    0.0000000000          0.5469
C113       C    0.6139331604    1.0000000000    0.0000000000          0.5506
C114       C    0.5000000000    1.1139331604    0.0000000000           0.562
C115       C    0.5000000000    1.0000000000   -0.1139331604          0.5525
Zn116     Zn    0.4643458023    1.0356541977    0.5356541977          1.4972
Zn117     Zn    0.4643458023    0.9643458023    0.4643458023          1.4936
Zn118     Zn    0.5356541977    1.0356541977    0.4643458023          1.4911
Zn119     Zn    0.5356541977    0.9643458023    0.5356541977          1.4948
O120       O    0.5000000000    1.0000000000    0.5000000000         -2.0602
O121       O    0.4047080193    1.0262032277    0.5262032277         -0.9665
O122       O    0.4737967723    0.9737967723    0.4047080193         -0.9647
O123       O    0.5262032277    1.0952919807    0.4737967723         -0.9599
O124       O    0.4047080193    0.9737967723    0.4737967723         -0.9667
O125       O    0.4737967723    1.0952919807    0.5262032277         -0.9626
O126       O    0.5262032277    1.0262032277    0.4047080193         -0.9685
O127       O    0.5952919807    0.9737967723    0.5262032277         -0.9624
O128       O    0.4737967723    0.9047080193    0.4737967723           -0.97
O129       O    0.5952919807    1.0262032277    0.4737967723         -0.9639
O130       O    0.5262032277    0.9047080193    0.5262032277         -0.9685
O131       O    0.5262032277    0.9737967723    0.5952919807         -0.9676
O132       O    0.4737967723    1.0262032277    0.5952919807         -0.9655
C133       C    0.3860668396    1.0000000000    0.5000000000          0.5524
C134       C    0.5000000000    1.0000000000    0.3860668396          0.5573
C135       C    0.5000000000    1.1139331604    0.5000000000          0.5469
C136       C    0.6139331604    1.0000000000    0.5000000000          0.5506
C137       C    0.5000000000    0.8860668396    0.5000000000           0.562
C138       C    0.5000000000    1.0000000000    0.6139331604          0.5525
Zn139     Zn    0.4643458023    0.5356541977   -0.0356541977          1.4972
Zn140     Zn    0.4643458023    0.4643458023    0.0356541977          1.4936
Zn141     Zn    0.5356541977    0.4643458023   -0.0356541977          1.4911
Zn142     Zn    0.5356541977    0.5356541977    0.0356541977          1.4948
O143       O    0.5000000000    0.5000000000    0.0000000000         -2.0602
O144       O    0.4047080193    0.5262032277   -0.0262032277         -0.9665
O145       O    0.4737967723    0.4047080193    0.0262032277         -0.9647
O146       O    0.5262032277    0.4737967723   -0.0952919807         -0.9599
O147       O    0.4047080193    0.4737967723    0.0262032277         -0.9667
O148       O    0.4737967723    0.5262032277   -0.0952919807         -0.9626
O149       O    0.5262032277    0.4047080193   -0.0262032277         -0.9685
O150       O    0.5952919807    0.5262032277    0.0262032277         -0.9624
O151       O    0.4737967723    0.4737967723    0.0952919807           -0.97
O152       O    0.5952919807    0.4737967723   -0.0262032277         -0.9639
O153       O    0.5262032277    0.5262032277    0.0952919807         -0.9685
O154       O    0.5262032277    0.5952919807    0.0262032277         -0.9676
O155       O    0.4737967723    0.5952919807   -0.0262032277         -0.9655
C156       C    0.3860668396    0.5000000000    0.0000000000          0.5524
C157       C    0.5000000000    0.3860668396    0.0000000000          0.5573
C158       C    0.5000000000    0.5000000000   -0.1139331604          0.5469
C159       C    0.6139331604    0.5000000000    0.0000000000          0.5506
C160       C    0.5000000000    0.5000000000    0.1139331604           0.562
C161       C    0.5000000000    0.6139331604    0.0000000000          0.5525
Zn162     Zn    0.4643458023    0.5356541977    0.4643458023          1.4972
Zn163     Zn    0.4643458023    0.4643458023    0.5356541977          1.4936
Zn164     Zn    0.5356541977    0.4643458023    0.4643458023          1.4911
Zn165     Zn    0.5356541977    0.5356541977    0.5356541977          1.4948
O166       O    0.5000000000    0.5000000000    0.5000000000         -2.0602
O167       O    0.4047080193    0.5262032277    0.4737967723         -0.9665
O168       O    0.4737967723    0.4047080193    0.5262032277         -0.9647
O169       O    0.5262032277    0.4737967723    0.4047080193         -0.9599
O170       O    0.4047080193    0.4737967723    0.5262032277         -0.9667
O171       O    0.4737967723    0.5262032277    0.4047080193         -0.9626
O172       O    0.5262032277    0.4047080193    0.4737967723         -0.9685
O173       O    0.5952919807    0.5262032277    0.5262032277         -0.9624
O174       O    0.4737967723    0.4737967723    0.5952919807           -0.97
O175       O    0.5952919807    0.4737967723    0.4737967723         -0.9639
O176       O    0.5262032277    0.5262032277    0.5952919807         -0.9685
O177       O    0.5262032277    0.5952919807    0.5262032277         -0.9676
O178       O    0.4737967723    0.5952919807    0.4737967723         -0.9655
C179       C    0.3860668396    0.5000000000    0.5000000000          0.5524
C180       C    0.5000000000    0.3860668396    0.5000000000          0.5573
C181       C    0.5000000000    0.5000000000    0.3860668396          0.5469
C182       C    0.6139331604    0.5000000000    0.5000000000          0.5506
C183       C    0.5000000000    0.5000000000    0.6139331604           0.562
C184       C    0.5000000000    0.6139331604    0.5000000000          0.5525
C553       C    0.5000000000    0.5000000000   -0.3370947879          0.7759
C554       C    0.5290675884    0.4831313652   -0.3106496844          0.7574
C555       C    0.5234041481    0.4848796156   -0.2684162522          0.7606
C556       C    0.4866090664    0.4963704934   -0.2466187283          0.7766
C557       C    0.4545826856    0.5035628032   -0.2769054161         -0.2129
C558       C    0.4616480741    0.5073083122   -0.3196334069         -0.2115
C559       C    0.4790984066    0.4957933371   -0.2018081488         -0.2219
O560       O    0.5539207782    0.5106049091   -0.2569479336         -0.2216
Cl561     Cl    0.5793977699    0.4670886265   -0.3279492974          0.7354
C562       C    0.4337679593    0.5174743557   -0.3390390547         -0.1989
H563       H    0.4225544055    0.5089420132   -0.2645517388         -0.2031
N564       N    0.4099573794    0.5051250065   -0.3636162888         -0.2064
H565       H    0.5605800850    0.5176856294   -0.2876310435         -0.2171
C566       C    0.5000000000    0.5000000000   -0.1629052121         -0.2207
H567       H    0.5341969711    0.5056571516   -0.1635659021          -0.221
H568       H    0.4454561809    0.4902514177   -0.1962138301         -0.2214
C537       C    0.5000000000    0.5000000000    0.1629052121          0.7759
C538       C    0.4739453096    0.5212280156    0.1893503156          0.7574
C539       C    0.4792635416    0.5186112725    0.2315837478          0.7606
C540       C    0.5137949819    0.5014794911    0.2533812717          0.7766
C541       C    0.5442926866    0.4893424239    0.2230945839         -0.2129
C542       C    0.5367263806    0.4867540718    0.1803665931         -0.2115
C543       C    0.5213029964    0.5008688859    0.2981918512         -0.2219
O544       O    0.4450825626    0.4980026309    0.2430520664         -0.2216
Cl545     Cl    0.4267625272    0.5449826295    0.1720507026          0.7354
C546       C    0.5626619272    0.4723319823    0.1609609453         -0.1989
H547       H    0.5750772647    0.4789956188    0.2354482612         -0.2031
N548       N    0.5881176813    0.4807850719    0.1363837112         -0.2064
H549       H    0.4373930345    0.4920566974    0.2123689565         -0.2171
C550       C    0.5000000000    0.5000000000    0.3370947879         -0.2207
H551       H    0.4653389054    0.4997885327    0.3364340979          -0.221
H552       H    0.5553981287    0.5010537529    0.3037861699         -0.2214
C521       C    0.5000000000    0.8370947879    0.5000000000          0.7759
C522       C    0.5175050944    0.8106496844    0.4713112007          0.7574
C523       C    0.5133608272    0.7684162522    0.4755486510          0.7606
C524       C    0.4864989625    0.7466187283    0.5031956858          0.7766
C525       C    0.4617787167    0.7769054161    0.5247903109         -0.2129
C526       C    0.4697751281    0.8196334069    0.5247131294         -0.2115
C527       C    0.4796221044    0.7018081488    0.5062700870         -0.2219
O528       O    0.5524518823    0.7569479336    0.4836074877         -0.2216
Cl529     Cl    0.5540931626    0.8279492974    0.4332085774          0.7354
C530       C    0.4501174350    0.8390390547    0.5469442865         -0.1989
H531       H    0.4361921657    0.7645517388    0.5447921868         -0.2031
N532       N    0.4232995312    0.8636162888    0.5474444656         -0.2064
H533       H    0.5616818653    0.7876310435    0.4866555002         -0.2171
C534       C    0.5000000000    0.6629052121    0.5000000000         -0.2207
H535       H    0.5327558070    0.6635659021    0.4886645112          -0.221
H536       H    0.4474088526    0.6962138301    0.5174423127         -0.2214
C505       C    0.5000000000    1.1629052121    0.5000000000          0.7759
C506       C    0.4764978593    1.1893503156    0.4759765756          0.7574
C507       C    0.4814880798    1.2315837478    0.4791747993          0.7606
C508       C    0.5138738537    1.2533812717    0.5000812565          0.7766
C509       C    0.5428131781    1.2230945839    0.5155710561         -0.2129
C510       C    0.5350037875    1.1803665931    0.5172920937         -0.2115
C511       C    0.5212655729    1.2981918512    0.5015323280         -0.2219
O512       O    0.4452063143    1.2430520664    0.4958087684         -0.2216
Cl513     Cl    0.4322857915    1.1720507026    0.4470665480          0.7354
C514       C    0.5591529242    1.1609609453    0.5345393672         -0.1989
H515       H    0.5722388864    1.2354482612    0.5293142117         -0.2031
N516       N    0.5853978192    1.1363837112    0.5290026153         -0.2064
H517       H    0.4368968948    1.2123689565    0.5008522310         -0.2171
C518       C    0.5000000000    1.3370947879    0.5000000000         -0.2207
H519       H    0.4655349993    1.3364340979    0.4963121927          -0.221
H520       H    0.5551652101    1.3037861699    0.5051829197         -0.2214
C489       C    0.5000000000    0.6629052121    0.0000000000          0.7759
C490       C    0.5333744786    0.6893503156   -0.0039521783          0.7574
C491       C    0.5277951676    0.7315837478   -0.0019516223          0.7606
C492       C    0.4914670984    0.7533812717    0.0109398360          0.7766
C493       C    0.4615332437    0.7230945839    0.0244076764         -0.2129
C494       C    0.4649368326    0.6803665931    0.0171713697         -0.2115
C495       C    0.4858058370    0.7981918512    0.0159090652         -0.2219
O496       O    0.5367656827    0.7430520664   -0.0408435919         -0.2216
Cl497     Cl    0.5832608671    0.6720507026   -0.0213258619          0.7354
C498       C    0.4365347977    0.6609609453    0.0257721637         -0.1989
H499       H    0.4326860134    0.7354482612    0.0393269237         -0.2031
N500       N    0.4249006740    0.6363837112    0.0499402688         -0.2064
H501       H    0.5378428049    0.7123689565   -0.0505039632         -0.2171
C502       C    0.5000000000    0.8370947879    0.0000000000         -0.2207
H503       H    0.5239583831    0.8364340979   -0.0250485942          -0.221
H504       H    0.4622220276    0.8037861699    0.0405325531         -0.2214
C473       C    0.5000000000    1.1629052121    0.0000000000          0.7759
C474       C    0.4902296817    1.1893503156    0.0321561256          0.7574
C475       C    0.4906357278    1.2315837478    0.0262429148          0.7606
C476       C    0.4934028556    1.2533812717   -0.0122052491          0.7766
C477       C    0.4930765528    1.2230945839   -0.0450276792         -0.2129
C478       C    0.4983393021    1.1803665931   -0.0390067139 -0.20829999999999999
C479       C    0.4911225288    1.2981918512   -0.0193846105         -0.2219
O480       O    0.5226609605    1.2430520664    0.0500639120         -0.2216
Cl481     Cl    0.4861283511    1.1720507026    0.0848218234          0.7354
C482       C    0.5018565351    1.1609609453   -0.0684732766         -0.1989
H483       H    0.4909848134    1.2354482612   -0.0774371108         -0.2031
N484       N    0.4843867934    1.1363837112   -0.0888266120         -0.2064
H485       H    0.5310775312    1.2123689565    0.0549264530         -0.2171
C486       C    0.5000000000    1.3370947879    0.0000000000         -0.2207
H487       H    0.5133315385    1.3364340979    0.0319954102          -0.221
H488       H    0.4780300945    1.3037861699   -0.0508663574         -0.2214
C457       C    0.5000000000    1.0000000000   -0.1629052121          0.7759
C458       C    0.4709324116    0.9831313652   -0.1893503156          0.7574
C459       C    0.4765958519    0.9848796156   -0.2315837478          0.7606
C460       C    0.5133909336    0.9963704934   -0.2533812717          0.7766
C461       C    0.5454173144    1.0035628032   -0.2230945839         -0.2129
C462       C    0.5383519259    1.0073083122   -0.1803665931         -0.2115
C463       C    0.5209015934    0.9957933371   -0.2981918512         -0.2219
O464       O    0.4460792218    1.0106049091   -0.2430520664         -0.2216
Cl465     Cl    0.4206022301    0.9670886265   -0.1720507026          0.7354
C466       C    0.5662320407    1.0174743557   -0.1609609453         -0.1989
H467       H    0.5774455945    1.0089420132   -0.2354482612         -0.2031
N468       N    0.5900426206    1.0051250065   -0.1363837112         -0.2064
H469       H    0.4394199150    1.0176856294   -0.2123689565         -0.2171
C470       C    0.5000000000    1.0000000000   -0.3370947879         -0.2207
H471       H    0.4658030289    1.0056571516   -0.3364340979          -0.221
H472       H    0.5545438191    0.9902514177   -0.3037861699         -0.2214
C441       C    0.5000000000    1.0000000000    0.1629052121          0.7759
C442       C    0.4738910209    1.0211612085    0.1893503156          0.7574
C443       C    0.4792159380    1.0185580964    0.2315837478          0.7606
C444       C    0.5137911470    1.0015148212    0.2533812717          0.7766
C445       C    0.5443198400    0.9894559118    0.2230945839         -0.2129
C446       C    0.5367601888    0.9868481876    0.1803665931         -0.2115
C447       C    0.5213007009    1.0009234493    0.2981918512         -0.2219
O448       O    0.4450878588    0.9978619699    0.2430520664         -0.2216
Cl449     Cl    0.4266475473    1.0447948887    0.1720507026          0.7354
C450       C    0.5627325915    0.9724925776    0.1609609453         -0.1989
H451       H    0.5751308199    0.9791879934    0.2354482612         -0.2031
N452       N    0.5881666101    0.9810108428    0.1363837112         -0.2064
H453       H    0.4374135861    0.9918963597    0.2123689565         -0.2171
C454       C    0.5000000000    1.0000000000    0.3370947879         -0.2207
H455       H    0.4653395608    0.9996997512    0.3364340979          -0.221
H456       H    0.5553952478    1.0011956482    0.3037861699         -0.2214
C425       C    0.8370947879    0.5000000000    0.5000000000          0.7759
C426       C    0.8106496844    0.5333158946    0.5044189033          0.7574
C427       C    0.7684162522    0.5274152323    0.5049784748          0.7606
C428       C    0.7466187283    0.4890280394    0.5084915547          0.7766
C429       C    0.7769054161    0.4566942437    0.5141434608         -0.2129
C430       C    0.8196334069    0.4617806918    0.5079728370         -0.2115
C431       C    0.7018081488    0.4823142639    0.5119074496         -0.2219
O432       O    0.7569479336    0.5457195772    0.4695100890         -0.2216
Cl433     Cl    0.8279492974    0.5859485713    0.4999135756          0.7354
C434       C    0.8390390547    0.4321340815    0.5092872728         -0.1989
H435       H    0.7645517388    0.4250546486    0.5214703056         -0.2031
N436       N    0.8636162888    0.4148877508    0.5298302575         -0.2064
H437       H    0.7876310435    0.5491508372    0.4604156169         -0.2171
C438       C    0.6629052121    0.5000000000    0.5000000000         -0.2207
H439       H    0.6635659021    0.5294058722    0.4816497718          -0.221
H440       H    0.6962138301    0.4533764098    0.5299383349         -0.2214
C409       C    1.1629052121    0.5000000000    0.5000000000          0.7759
C410       C    1.1893503156    0.4911903349    0.5324324735          0.7574
C411       C    1.2315837478    0.4939884101    0.5272073696          0.7606
C412       C    1.2533812717    0.5120741419    0.4931658566          0.7766
C413       C    1.2230945839    0.5297911570    0.4655338866         -0.2129
C414       C    1.1803665931    0.5221335341    0.4678380922         -0.2115
C415       C    1.2981918512    0.5178207484    0.4882955758         -0.2219
O416       O    1.2430520664    0.4542008262    0.5303702172         -0.2216
Cl417     Cl    1.1720507026    0.4666802102    0.5792272427          0.7354
C418       C    1.1609609453    0.5348113372    0.4410067197         -0.1989
H419       H    1.2354482612    0.5487843012    0.4391898720         -0.2031
N420       N    1.1363837112    0.5604257275    0.4330472504         -0.2064
H421       H    1.2123689565    0.4444870020    0.5300172490         -0.2171
C422       C    1.3370947879    0.5000000000    0.5000000000         -0.2207
H423       H    1.3364340979    0.4717051123    0.5200208773          -0.221
H424       H    1.3037861699    0.5456401390    0.4685827950         -0.2214
C393       C    0.6629052121    0.5000000000    0.0000000000          0.7759
C394       C    0.6893503156    0.5274428804   -0.0194000993          0.7574
C395       C    0.7315837478    0.5219584413   -0.0171524642          0.7606
C396       C    0.7533812717    0.4863381761   -0.0024176410          0.7766
C397       C    0.7230945839    0.4550831620    0.0076094462         -0.2129
C398       C    0.6803665931    0.4624551492    0.0107082130         -0.2115
C399       C    0.7981918512    0.4788059940   -0.0023209325         -0.2219
O400       O    0.7430520664    0.5546530245    0.0057411958         -0.2216
Cl401     Cl    0.6720507026    0.5761370350   -0.0398787697          0.7354
C402       C    0.6609609453    0.4355956850    0.0233263915         -0.1989
H403       H    0.7354482612    0.4236641408    0.0158308656         -0.2031
N404       N    0.6363837112    0.4107762794    0.0131554896         -0.2064
H405       H    0.7123689565    0.5619187690    0.0121981242         -0.2171
C406       C    0.8370947879    0.5000000000    0.0000000000         -0.2207
H407       H    0.8364340979    0.5345658235    0.0025768273          -0.221
H408       H    0.8037861699    0.4448029971   -0.0048325907         -0.2214
C377       C    1.3370947879    0.5000000000    0.0000000000          0.7759
C378       C    1.3106496844    0.5310032241   -0.0129721098          0.7574
C379       C    1.2684162522    0.5261885482   -0.0095152569          0.7606
C380       C    1.2466187283    0.4948021929    0.0128636395          0.7766
C381       C    1.2769054161    0.4697222433    0.0340394398         -0.2129
C382       C    1.3196334069    0.4710060637    0.0261463823         -0.2115
C383       C    1.2018081488    0.4907245852    0.0191973774         -0.2219
O384       O    1.2569479336    0.5241251975   -0.0493749862         -0.2216
Cl385     Cl    1.3279492974    0.5741940054   -0.0433867946          0.7354
C386       C    1.3390390547    0.4460613687    0.0422215630         -0.1989
H387       H    1.2645517388    0.4460859589    0.0563121291         -0.2031
N388       N    1.3636162888    0.4415172011    0.0686564014         -0.2064
H389       H    1.2876310435    0.5225059415   -0.0589593994         -0.2171
C390       C    1.1629052121    0.5000000000    0.0000000000         -0.2207
H391       H    1.1635659021    0.5161518958   -0.0306684277          -0.221
H392       H    1.1962138301    0.4748160105    0.0493541258         -0.2214
C361       C    1.0000000000    0.5000000000   -0.1629052121          0.7759
C362       C    1.0208521920    0.4736435658   -0.1893503156          0.7574
C363       C    1.0183119848    0.4789987766   -0.2315837478          0.7606
C364       C    1.0016771677    0.5137723465   -0.2533812717          0.7766
C365       C    0.9899787049    0.5444409682   -0.2230945839         -0.2129
C366       C    0.9872821134    0.5369125589   -0.1803665931         -0.2115
C367       C    1.0011742950    0.5212883454   -0.2981918512         -0.2219
O368       O    0.9972152857    0.4451168534   -0.2430520664         -0.2216
Cl369     Cl    1.0439277323    0.4261249791   -0.1720507026          0.7354
C370       C    0.9732334390    0.5630522604   -0.1609609453         -0.1989
H371       H    0.9800744340    0.5753707605   -0.2354482612         -0.2031
N372       N    0.9820507109    0.5883841741   -0.1363837112         -0.2064
H373       H    0.9911596909    0.4375133845   -0.2123689565         -0.2171
C374       C    1.0000000000    0.5000000000   -0.3370947879         -0.2207
H375       H    0.9992914925    0.4653455023   -0.3364340979          -0.221
H376       H    1.0018480886    0.5553773205   -0.3037861699         -0.2214
C345       C    1.0000000000    0.5000000000    0.3370947879          0.7759
C346       C    1.0208521920    0.4736435658    0.3106496844          0.7574
C347       C    1.0183119848    0.4789987766    0.2684162522          0.7606
C348       C    1.0016771677    0.5137723465    0.2466187283          0.7766
C349       C    0.9899787049    0.5444409682    0.2769054161         -0.2129
C350       C    0.9872821134    0.5369125589    0.3196334069         -0.2115
C351       C    1.0011742950    0.5212883454    0.2018081488         -0.2219
O352       O    0.9972152857    0.4451168534    0.2569479336         -0.2216
Cl353     Cl    1.0439277323    0.4261249791    0.3279492974          0.7354
C354       C    0.9732334390    0.5630522604    0.3390390547         -0.1989
H355       H    0.9800744340    0.5753707605    0.2645517388         -0.2031
N356       N    0.9820507109    0.5883841741    0.3636162888         -0.2064
H357       H    0.9911596909    0.4375133845    0.2876310435         -0.2171
C358       C    1.0000000000    0.5000000000    0.1629052121         -0.2207
H359       H    0.9992914925    0.4653455023    0.1635659021          -0.221
H360       H    1.0018480886    0.5553773205    0.1962138301         -0.2214
C329       C    1.0000000000   -0.3370947879    0.5000000000          0.7759
C330       C    0.9779458371   -0.3106496844    0.5253592080          0.7574
C331       C    0.9807320977   -0.2684162522    0.5201277945          0.7606
C332       C    0.9989644893   -0.2466187283    0.4861646056          0.7766
C333       C    1.0120751460   -0.2769054161    0.4560725956         -0.2129
C334       C    1.0144190653   -0.3196334069    0.4637181560         -0.2115
C335       C    0.9998160030   -0.2018081488    0.4786800853         -0.2219
O336       O    1.0002319050   -0.2569479336    0.5549532587         -0.2216
Cl337     Cl    0.9526875593   -0.3279492974    0.5717544238          0.7354
C338       C    1.0296669880   -0.3390390547    0.4382593639         -0.1989
H339       H    1.0234056819   -0.2645517388    0.4256363411         -0.2031
N340       N    1.0220361259   -0.3636162888    0.4125451638         -0.2064
H341       H    1.0059277134   -0.2876310435    0.5628298528         -0.2171
C342       C    1.0000000000   -0.1629052121    0.5000000000         -0.2207
H343       H    0.9990977378   -0.1635659021    0.5346499945          -0.221
H344       H    1.0007266680   -0.1962138301    0.4445966155         -0.2214
C313       C    1.0000000000    0.1629052121    0.5000000000          0.7759
C314       C    1.0120382032    0.1893503156    0.4686223455          0.7574
C315       C    1.0112115749    0.2315837478    0.4744915551          0.7606
C316       C    1.0057101121    0.2533812717    0.5126445656          0.7766
C317       C    1.0036953249    0.2230945839    0.5454067240         -0.2129
C318       C    0.9988752685    0.1803665931    0.5390258456         -0.2115
C319       C    1.0074727422    0.2981918512    0.5199682434         -0.2219
O320       O    0.9809663023    0.2430520664    0.4484477666         -0.2216
Cl321     Cl    1.0198841920    0.1720507026    0.4163831161          0.7354
C322       C    0.9932660032    0.1609609453    0.5681666312         -0.1989
H323       H    1.0034709282    0.2354482612    0.5778828118         -0.2031
N324       N    1.0092400769    0.1363837112    0.5897137682         -0.2064
H325       H    0.9729178550    0.2123689565    0.4429974947         -0.2171
C326       C    1.0000000000    0.3370947879    0.5000000000         -0.2207
H327       H    0.9889836844    0.3364340979    0.4671354753          -0.221
H328       H    1.0182871867    0.3037861699    0.5523033638         -0.2214
C297       C    0.8370947879   -0.0000000000    0.5000000000          0.7759
C298       C    0.8106496844   -0.0334743385    0.4970093147          0.7574
C299       C    0.7684162522   -0.0276029904    0.4961980148          0.7606
C300       C    0.7466187283    0.0105989365    0.4910471811          0.7766
C301       C    0.7769054161    0.0426615697    0.4840182453         -0.2129
C302       C    0.8196334069    0.0378435512    0.4904006626         -0.2115
C303       C    0.7018081488    0.0171605532    0.4873474101         -0.2219
O304       O    0.7569479336   -0.0443744106    0.5324164480         -0.2216
Cl305     Cl    0.8279492974   -0.0858663111    0.5037604511          0.7354
C306       C    0.8390390547    0.0674068723    0.4878201032         -0.1989
H307       H    0.7645517388    0.0739590370    0.4753455773         -0.2031
N308       N    0.8636162888    0.0837592723    0.4665586556         -0.2064
H309       H    0.7876310435   -0.0474137661    0.5416492853         -0.2171
C310       C    0.6629052121   -0.0000000000    0.5000000000         -0.2207
H311       H    0.6635659021   -0.0285945618    0.5195904883          -0.221
H312       H    0.6962138301    0.0453011758    0.4680959795         -0.2214
C281       C    1.1629052121   -0.0000000000    0.5000000000          0.7759
C282       C    1.1893503156   -0.0031882410    0.5334561004          0.7574
C283       C    1.2315837478   -0.0013157447    0.5278325167          0.7606
C284       C    1.2533812717    0.0107419245    0.4912192552          0.7766
C285       C    1.2230945839    0.0235219901    0.4609853618         -0.2129
C286       C    1.1803665931    0.0163653766    0.4645534755         -0.2115
C287       C    1.2981918512    0.0155804449    0.4854458818         -0.2219
O288       O    1.2430520664   -0.0399924956    0.5376897163         -0.2216
Cl289     Cl    1.1720507026   -0.0194170357    0.5837265973          0.7354
C290       C    1.1609609453    0.0243146833    0.4359622572         -0.1989
H291       H    1.2354482612    0.0377779223    0.4318046314         -0.2031
N292       N    1.1363837112    0.0482105298    0.4237787166         -0.2064
H293       H    1.2123689565   -0.0496257208    0.5389873828         -0.2171
C294       C    1.3370947879   -0.0000000000    0.5000000000         -0.2207
H295       H    1.3364340979   -0.0244943862    0.5245247067          -0.221
H296       H    1.3037861699    0.0396583982    0.4613053685         -0.2214
C265       C   -0.0000000000   -0.3370947879    0.0000000000          0.7759
C266       C   -0.0273061218   -0.3106496844   -0.0195921221          0.7574
C267       C   -0.0218375838   -0.2684162522   -0.0173060713          0.7606
C268       C    0.0136784465   -0.2466187283   -0.0023217497          0.7766
C269       C    0.0448623559   -0.2769054161    0.0079243315         -0.2129
C270       C    0.0374688135   -0.3196334069    0.0109713108         -0.2115
C271       C    0.0212097650   -0.2018081488   -0.0021722084         -0.2219
O272       O   -0.0546919520   -0.2569479336    0.0053576868         -0.2216
Cl273     Cl   -0.0758554292   -0.3279492974   -0.0404118575          0.7354
C274       C    0.0642391057   -0.3390390547    0.0237775865         -0.1989
H275       H    0.0762229344   -0.2645517388    0.0163659397         -0.2031
N276       N    0.0891292453   -0.3636162888    0.0137810324         -0.2064
H277       H   -0.0620028103   -0.2876310435    0.0117634903         -0.2171
C278       C   -0.0000000000   -0.1629052121    0.0000000000         -0.2207
H279       H   -0.0345830485   -0.1635659021    0.0023342993          -0.221
H280       H    0.0552295434   -0.1962138301   -0.0044452883         -0.2214
C249       C   -0.0000000000    0.3370947879    0.0000000000          0.7759
C250       C    0.0296868757    0.3106496844    0.0157532520          0.7574
C251       C    0.0252085375    0.2684162522    0.0118705439          0.7606
C252       C   -0.0039995327    0.2466187283   -0.0132851104          0.7766
C253       C   -0.0270376615    0.2769054161   -0.0366659361         -0.2129
C254       C   -0.0264811093    0.3196334069   -0.0286885430         -0.2115
C255       C   -0.0074807763    0.2018081488   -0.0199652349         -0.2219
O256       O    0.0195083216    0.2569479336    0.0513745054         -0.2216
Cl257     Cl    0.0699149566    0.3279492974    0.0499906313          0.7354
C258       C   -0.0498510455    0.3390390547   -0.0469777563         -0.1989
H259       H   -0.0485378557    0.2645517388   -0.0610070182         -0.2031
N260       N   -0.0519584762    0.3636162888   -0.0737174062         -0.2064
H261       H    0.0170192756    0.2876310435    0.0607706545         -0.2171
C262       C   -0.0000000000    0.1629052121    0.0000000000         -0.2207
H263       H    0.0132793115    0.1635659021    0.0320171217          -0.221
H264       H   -0.0205645839    0.1962138301   -0.0514505680         -0.2214
C233       C   -0.1629052121   -0.0000000000    0.0000000000          0.7759
C234       C   -0.1893503156   -0.0336008818    0.0006754814          0.7574
C235       C   -0.2315837478   -0.0278529331   -0.0007709007          0.7606
C236       C   -0.2533812717    0.0095600344   -0.0100546587          0.7766
C237       C   -0.2230945839    0.0406655873   -0.0205362123         -0.2129
C238       C   -0.1803665931    0.0365718867   -0.0136667024         -0.2115
C239       C   -0.2981918512    0.0156793269   -0.0144475371         -0.2219
O240       O   -0.2430520664   -0.0405770160    0.0370596842         -0.2216
Cl241     Cl   -0.1720507026   -0.0849449475    0.0130965749          0.7354
C242       C   -0.1609609453    0.0656778423   -0.0194539803         -0.1989
H243       H   -0.2354482612    0.0708313830   -0.0325683113         -0.2031
N244       N   -0.1363837112    0.0796155553   -0.0423710111         -0.2064
H245       H   -0.2123689565   -0.0425919835    0.0465687785         -0.2171
C246       C   -0.3370947879   -0.0000000000    0.0000000000         -0.2207
H247       H   -0.3364340979   -0.0262890640    0.0225902924          -0.221
H248       H   -0.3037861699    0.0415541095   -0.0366513170         -0.2214
C217       C    0.3370947879   -0.0000000000    0.0000000000          0.7759
C218       C    0.3106496844    0.0336044412    0.0004659048          0.7574
C219       C    0.2684162522    0.0278106921    0.0017162677          0.7606
C220       C    0.2466187283   -0.0098959505    0.0097242267          0.7766
C221       C    0.2769054161   -0.0413394900    0.0191434735         -0.2129
C222       C    0.3196334069   -0.0370148799    0.0124169365         -0.2115
C223       C    0.2018081488   -0.0161608843    0.0139067767         -0.2219
O224       O    0.2569479336    0.0418120629   -0.0356604236         -0.2216
Cl225     Cl    0.3279492974    0.0853406832   -0.0102045171          0.7354
C226       C    0.3390390547   -0.0663005703    0.0172125159         -0.1989
H227       H    0.2645517388   -0.0718964666    0.0301442831         -0.2031
N228       N    0.3636162888   -0.0810084466    0.0396430423         -0.2064
H229       H    0.2876310435    0.0441487720   -0.0450956109         -0.2171
C230       C    0.1629052121   -0.0000000000    0.0000000000         -0.2207
H231       H    0.1635659021    0.0270410089   -0.0216845574          -0.221
H232       H    0.1962138301   -0.0427747259    0.0352191125         -0.2214
C201       C   -0.0000000000    0.0000000000   -0.3370947879          0.7759
C202       C   -0.0257351628    0.0216142761   -0.3106496844          0.7574
C203       C   -0.0204565528    0.0189184994   -0.2684162522          0.7606
C204       C    0.0138155149    0.0012735657   -0.2466187283          0.7766
C205       C    0.0441287948   -0.0113170437   -0.2769054161         -0.2129
C206       C    0.0365247237   -0.0137922517   -0.3196334069         -0.2115
C207       C    0.0213135866    0.0005510417   -0.2018081488         -0.2219
O208       O   -0.0549411202   -0.0011780188   -0.2569479336         -0.2216
Cl209     Cl   -0.0725583814    0.0460700083   -0.3279492974          0.7354
C210       C    0.0622422706   -0.0285995818   -0.3390390547         -0.1989
H211       H    0.0747556193   -0.0221218691   -0.2645517388         -0.2031
N212       N    0.0878212760   -0.0205271211   -0.3636162888         -0.2064
H213       H   -0.0627184802   -0.0070085968   -0.2876310435         -0.2171
C214       C   -0.0000000000    0.0000000000   -0.1629052121         -0.2207
H215       H   -0.0346603929    0.0003055482   -0.1635659021          -0.221
H216       H    0.0554076834    0.0002273378   -0.1962138301         -0.2214
C185       C   -0.0000000000    0.0000000000    0.3370947879          0.7759
C186       C    0.0334501797    0.0032497714    0.3106496844          0.7574
C187       C    0.0275727261    0.0040155880    0.2684162522          0.7606
C188       C   -0.0106679362    0.0088704881    0.2466187283          0.7766
C189       C   -0.0427840300    0.0156509676    0.2769054161         -0.2129
C190       C   -0.0379167400    0.0093060452    0.3196334069         -0.2115
C191       C   -0.0172580018    0.0125193448    0.2018081488         -0.2219
O192       O    0.0446240656   -0.0320719065    0.2569479336         -0.2216
Cl193     Cl    0.0858928527   -0.0030955168    0.3279492974          0.7354
C194       C   -0.0674991550    0.0116576327    0.3390390547         -0.1989
H195       H   -0.0741477075    0.0240810544    0.2645517388         -0.2031
N196       N   -0.0840156821    0.0327918342    0.3636162888         -0.2064
H197       H    0.0477348154   -0.0412809349    0.2876310435         -0.2171
C198       C   -0.0000000000    0.0000000000    0.1629052121         -0.2207
H199       H    0.0287453845   -0.0193685071    0.1635659021          -0.221
H200       H   -0.0455468355    0.0315523190    0.1962138301         -0.2214
loop_
_geom_bond_atom_site_label_1
_geom_bond_atom_site_label_2
_geom_bond_distance
_geom_bond_site_symmetry_2
_ccdc_geom_bond_type
Zn1          O5 1.942       .   S
Zn1          O6 1.922       .   S
Zn1         O10 1.922       .   S
Zn1         O17 1.922       .   S
Zn2          O5 1.942       .   S
Zn2          O7 1.922       .   S
Zn2          O9 1.922       .   S
Zn2         O13 1.922       .   S
Zn3          O5 1.942       .   S
Zn3          O8 1.922       .   S
Zn3         O11 1.922       .   S
Zn3         O14 1.922       .   S
Zn4          O5 1.942       .   S
Zn4         O12 1.922       .   S
Zn4         O15 1.922       .   S
Zn4         O16 1.922       .   S
O6          C18 1.304       .   A
O7          C19 1.304       .   A
O8          C20 1.304       .   A
O9          C18 1.304       .   A
O10         C20 1.304       .   A
O11         C19 1.304       .   A
O12         C21 1.304       .   A
O13         C22 1.304       .   A
O14         C21 1.304       .   A
O15         C22 1.304       .   A
O16         C23 1.304       .   A
O17         C23 1.304       .   A
C18        C198 1.540       .   S
C19        C230 1.540       .   S
C20        C278 1.540       .   S
C21        C214 1.540       .   S
C22        C262 1.540       .   S
C23        C233 1.540       .   S
Zn24        O28 1.942       .   S
Zn24        O29 1.922       .   S
Zn24        O33 1.922       .   S
Zn24        O40 1.922       .   S
Zn25        O28 1.942       .   S
Zn25        O30 1.922       .   S
Zn25        O32 1.922       .   S
Zn25        O36 1.922       .   S
Zn26        O28 1.942       .   S
Zn26        O31 1.922       .   S
Zn26        O34 1.922       .   S
Zn26        O37 1.922       .   S
Zn27        O28 1.942       .   S
Zn27        O35 1.922       .   S
Zn27        O38 1.922       .   S
Zn27        O39 1.922       .   S
O29         C41 1.304       .   A
O30         C42 1.304       .   A
O31         C43 1.304       .   A
O32         C41 1.304       .   A
O33         C43 1.304       .   A
O34         C42 1.304       .   A
O35         C44 1.304       .   A
O36         C45 1.304       .   A
O37         C44 1.304       .   A
O38         C45 1.304       .   A
O39         C46 1.304       .   A
O40         C46 1.304       .   A
C41        C185 1.540   1_655   S
C42        C281 1.540       .   S
C43        C313 1.540       .   S
C44        C201 1.540   1_656   S
C45        C342 1.540       .   S
C46        C297 1.540       .   S
Zn47        O51 1.942       .   S
Zn47        O52 1.922       .   S
Zn47        O56 1.922       .   S
Zn47        O63 1.922       .   S
Zn48        O51 1.942       .   S
Zn48        O53 1.922       .   S
Zn48        O55 1.922       .   S
Zn48        O59 1.922       .   S
Zn49        O51 1.942       .   S
Zn49        O54 1.922       .   S
Zn49        O57 1.922       .   S
Zn49        O60 1.922       .   S
Zn50        O51 1.942       .   S
Zn50        O58 1.922       .   S
Zn50        O61 1.922       .   S
Zn50        O62 1.922       .   S
O52         C64 1.304       .   A
O53         C65 1.304       .   A
O54         C66 1.304       .   A
O55         C64 1.304       .   A
O56         C66 1.304       .   A
O57         C65 1.304       .   A
O58         C67 1.304       .   A
O59         C68 1.304       .   A
O60         C67 1.304       .   A
O61         C68 1.304       .   A
O62         C69 1.304       .   A
O63         C69 1.304       .   A
C64        C249 1.540   1_655   S
C65        C358 1.540       .   S
C66        C390 1.540       .   S
C67        C265 1.540   1_665   S
C68        C406 1.540       .   S
C69        C361 1.540       .   S
Zn70        O74 1.942       .   S
Zn70        O75 1.922       .   S
Zn70        O79 1.922       .   S
Zn70        O86 1.922       .   S
Zn71        O74 1.942       .   S
Zn71        O76 1.922       .   S
Zn71        O78 1.922       .   S
Zn71        O82 1.922       .   S
Zn72        O74 1.942       .   S
Zn72        O77 1.922       .   S
Zn72        O80 1.922       .   S
Zn72        O83 1.922       .   S
Zn73        O74 1.942       .   S
Zn73        O81 1.922       .   S
Zn73        O84 1.922       .   S
Zn73        O85 1.922       .   S
O75         C87 1.304       .   A
O76         C88 1.304       .   A
O77         C89 1.304       .   A
O78         C87 1.304       .   A
O79         C89 1.304       .   A
O80         C88 1.304       .   A
O81         C90 1.304       .   A
O82         C91 1.304       .   A
O83         C90 1.304       .   A
O84         C91 1.304       .   A
O85         C92 1.304       .   A
O86         C92 1.304       .   A
C87        C326 1.540       .   S
C88        C345 1.540       .   S
C89        C425 1.540       .   S
C90        C329 1.540   1_565   S
C91        C409 1.540       .   S
C92        C374 1.540   1_556   S
Zn93        O97 1.942       .   S
Zn93        O98 1.922       .   S
Zn93       O102 1.922       .   S
Zn93       O109 1.922       .   S
Zn94        O97 1.942       .   S
Zn94        O99 1.922       .   S
Zn94       O101 1.922       .   S
Zn94       O105 1.922       .   S
Zn95        O97 1.942       .   S
Zn95       O100 1.922       .   S
Zn95       O103 1.922       .   S
Zn95       O106 1.922       .   S
Zn96        O97 1.942       .   S
Zn96       O104 1.922       .   S
Zn96       O107 1.922       .   S
Zn96       O108 1.922       .   S
O98        C110 1.304       .   A
O99        C111 1.304       .   A
O100       C112 1.304       .   A
O101       C110 1.304       .   A
O102       C112 1.304       .   A
O103       C111 1.304       .   A
O104       C113 1.304       .   A
O105       C114 1.304       .   A
O106       C113 1.304       .   A
O107       C114 1.304       .   A
O108       C115 1.304       .   A
O109       C115 1.304       .   A
C110       C217 1.540   1_565   S
C111       C441 1.540       .   S
C112       C502 1.540       .   S
C113       C246 1.540   1_665   S
C114       C473 1.540       .   S
C115       C457 1.540       .   S
Zn116      O120 1.942       .   S
Zn116      O121 1.922       .   S
Zn116      O125 1.922       .   S
Zn116      O132 1.922       .   S
Zn117      O120 1.942       .   S
Zn117      O122 1.922       .   S
Zn117      O124 1.922       .   S
Zn117      O128 1.922       .   S
Zn118      O120 1.942       .   S
Zn118      O123 1.922       .   S
Zn118      O126 1.922       .   S
Zn118      O129 1.922       .   S
Zn119      O120 1.942       .   S
Zn119      O127 1.922       .   S
Zn119      O130 1.922       .   S
Zn119      O131 1.922       .   S
O121       C133 1.304       .   A
O122       C134 1.304       .   A
O123       C135 1.304       .   A
O124       C133 1.304       .   A
O125       C135 1.304       .   A
O126       C134 1.304       .   A
O127       C136 1.304       .   A
O128       C137 1.304       .   A
O129       C136 1.304       .   A
O130       C137 1.304       .   A
O131       C138 1.304       .   A
O132       C138 1.304       .   A
C133       C294 1.540   1_465   S
C134       C454 1.540       .   S
C135       C505 1.540       .   S
C136       C310 1.540   1_565   S
C137       C521 1.540       .   S
C138       C470 1.540   1_556   S
Zn139      O143 1.942       .   S
Zn139      O144 1.922       .   S
Zn139      O148 1.922       .   S
Zn139      O155 1.922       .   S
Zn140      O143 1.942       .   S
Zn140      O145 1.922       .   S
Zn140      O147 1.922       .   S
Zn140      O151 1.922       .   S
Zn141      O143 1.942       .   S
Zn141      O146 1.922       .   S
Zn141      O149 1.922       .   S
Zn141      O152 1.922       .   S
Zn142      O143 1.942       .   S
Zn142      O150 1.922       .   S
Zn142      O153 1.922       .   S
Zn142      O154 1.922       .   S
O144       C156 1.304       .   A
O145       C157 1.304       .   A
O146       C158 1.304       .   A
O147       C156 1.304       .   A
O148       C158 1.304       .   A
O149       C157 1.304       .   A
O150       C159 1.304       .   A
O151       C160 1.304       .   A
O152       C159 1.304       .   A
O153       C160 1.304       .   A
O154       C161 1.304       .   A
O155       C161 1.304       .   A
C156       C377 1.540   1_455   S
C157       C486 1.540   1_545   S
C158       C566 1.540       .   S
C159       C393 1.540       .   S
C160       C537 1.540       .   S
C161       C489 1.540       .   S
Zn162      O166 1.942       .   S
Zn162      O167 1.922       .   S
Zn162      O171 1.922       .   S
Zn162      O178 1.922       .   S
Zn163      O166 1.942       .   S
Zn163      O168 1.922       .   S
Zn163      O170 1.922       .   S
Zn163      O174 1.922       .   S
Zn164      O166 1.942       .   S
Zn164      O169 1.922       .   S
Zn164      O172 1.922       .   S
Zn164      O175 1.922       .   S
Zn165      O166 1.942       .   S
Zn165      O173 1.922       .   S
Zn165      O176 1.922       .   S
Zn165      O177 1.922       .   S
O167       C179 1.304       .   A
O168       C180 1.304       .   A
O169       C181 1.304       .   A
O170       C179 1.304       .   A
O171       C181 1.304       .   A
O172       C180 1.304       .   A
O173       C182 1.304       .   A
O174       C183 1.304       .   A
O175       C182 1.304       .   A
O176       C183 1.304       .   A
O177       C184 1.304       .   A
O178       C184 1.304       .   A
C179       C422 1.540   1_455   S
C180       C518 1.540   1_545   S
C181       C550 1.540       .   S
C182       C438 1.540       .   S
C183       C553 1.540   1_556   S
C184       C534 1.540       .   S
C553       C554 0.038       .   A
C553       C558 0.038       .   A
C554       C555 0.037       .   A
C554      Cl561 0.049       .   A
C555       C556 0.039       .   A
C555       O560 0.036       .   A
C556       C557 0.039       .   A
C556       C559 0.040       .   A
C557       C558 0.038       .   A
C557       H563 0.031       .   A
C558       C562 0.031       .   A
C559       C566 0.039       .   A
C559       H568 0.030       .   A
O560       H565 0.028       .   A
C562       N564 0.032       .   A
C566       H567 0.030       .   A
C537       C538 0.038       .   A
C537       C542 0.038       .   A
C538       C539 0.037       .   A
C538      Cl545 0.049       .   A
C539       C540 0.039       .   A
C539       O544 0.036       .   A
C540       C541 0.039       .   A
C540       C543 0.040       .   A
C541       C542 0.038       .   A
C541       H547 0.031       .   A
C542       C546 0.031       .   A
C543       C550 0.039       .   A
C543       H552 0.030       .   A
O544       H549 0.028       .   A
C546       N548 0.032       .   A
C550       H551 0.030       .   A
C521       C522 0.038       .   A
C521       C526 0.038       .   A
C522       C523 0.037       .   A
C522      Cl529 0.049       .   A
C523       C524 0.039       .   A
C523       O528 0.036       .   A
C524       C525 0.039       .   A
C524       C527 0.040       .   A
C525       C526 0.038       .   A
C525       H531 0.031       .   A
C526       C530 0.031       .   A
C527       C534 0.039       .   A
C527       H536 0.030       .   A
O528       H533 0.028       .   A
C530       N532 0.032       .   A
C534       H535 0.030       .   A
C505       C506 0.038       .   A
C505       C510 0.038       .   A
C506       C507 0.037       .   A
C506      Cl513 0.049       .   A
C507       C508 0.039       .   A
C507       O512 0.036       .   A
C508       C509 0.039       .   A
C508       C511 0.040       .   A
C509       C510 0.038       .   A
C509       H515 0.031       .   A
C510       C514 0.031       .   A
C511       C518 0.039       .   A
C511       H520 0.030       .   A
O512       H517 0.028       .   A
C514       N516 0.032       .   A
C518       H519 0.030       .   A
C489       C490 0.038       .   A
C489       C494 0.038       .   A
C490       C491 0.037       .   A
C490      Cl497 0.049       .   A
C491       C492 0.039       .   A
C491       O496 0.036       .   A
C492       C493 0.039       .   A
C492       C495 0.040       .   A
C493       C494 0.038       .   A
C493       H499 0.031       .   A
C494       C498 0.031       .   A
C495       C502 0.039       .   A
C495       H504 0.030       .   A
O496       H501 0.028       .   A
C498       N500 0.032       .   A
C502       H503 0.030       .   A
C473       C474 0.038       .   A
C473       C478 0.038       .   A
C474       C475 0.037       .   A
C474      Cl481 0.049       .   A
C475       C476 0.039       .   A
C475       O480 0.036       .   A
C476       C477 0.039       .   A
C476       C479 0.040       .   A
C477       C478 0.038       .   A
C477       H483 0.031       .   A
C478       C482 0.031       .   A
C479       C486 0.039       .   A
C479       H488 0.030       .   A
O480       H485 0.028       .   A
C482       N484 0.032       .   A
C486       H487 0.030       .   A
C457       C458 0.038       .   A
C457       C462 0.038       .   A
C458       C459 0.037       .   A
C458      Cl465 0.049       .   A
C459       C460 0.039       .   A
C459       O464 0.036       .   A
C460       C461 0.039       .   A
C460       C463 0.040       .   A
C461       C462 0.038       .   A
C461       H467 0.031       .   A
C462       C466 0.031       .   A
C463       C470 0.039       .   A
C463       H472 0.030       .   A
O464       H469 0.028       .   A
C466       N468 0.032       .   A
C470       H471 0.030       .   A
C441       C442 0.038       .   A
C441       C446 0.038       .   A
C442       C443 0.037       .   A
C442      Cl449 0.049       .   A
C443       C444 0.039       .   A
C443       O448 0.036       .   A
C444       C445 0.039       .   A
C444       C447 0.040       .   A
C445       C446 0.038       .   A
C445       H451 0.031       .   A
C446       C450 0.031       .   A
C447       C454 0.039       .   A
C447       H456 0.030       .   A
O448       H453 0.028       .   A
C450       N452 0.032       .   A
C454       H455 0.030       .   A
C425       C426 0.038       .   A
C425       C430 0.038       .   A
C426       C427 0.037       .   A
C426      Cl433 0.049       .   A
C427       C428 0.039       .   A
C427       O432 0.036       .   A
C428       C429 0.039       .   A
C428       C431 0.040       .   A
C429       C430 0.038       .   A
C429       H435 0.031       .   A
C430       C434 0.031       .   A
C431       C438 0.039       .   A
C431       H440 0.030       .   A
O432       H437 0.028       .   A
C434       N436 0.032       .   A
C438       H439 0.030       .   A
C409       C410 0.038       .   A
C409       C414 0.038       .   A
C410       C411 0.037       .   A
C410      Cl417 0.049       .   A
C411       C412 0.039       .   A
C411       O416 0.036       .   A
C412       C413 0.039       .   A
C412       C415 0.040       .   A
C413       C414 0.038       .   A
C413       H419 0.031       .   A
C414       C418 0.031       .   A
C415       C422 0.039       .   A
C415       H424 0.030       .   A
O416       H421 0.028       .   A
C418       N420 0.032       .   A
C422       H423 0.030       .   A
C393       C394 0.038       .   A
C393       C398 0.038       .   A
C394       C395 0.037       .   A
C394      Cl401 0.049       .   A
C395       C396 0.039       .   A
C395       O400 0.036       .   A
C396       C397 0.039       .   A
C396       C399 0.040       .   A
C397       C398 0.038       .   A
C397       H403 0.031       .   A
C398       C402 0.031       .   A
C399       C406 0.039       .   A
C399       H408 0.030       .   A
O400       H405 0.028       .   A
C402       N404 0.032       .   A
C406       H407 0.030       .   A
C377       C378 0.038       .   A
C377       C382 0.038       .   A
C378       C379 0.037       .   A
C378      Cl385 0.049       .   A
C379       C380 0.039       .   A
C379       O384 0.036       .   A
C380       C381 0.039       .   A
C380       C383 0.040       .   A
C381       C382 0.038       .   A
C381       H387 0.031       .   A
C382       C386 0.031       .   A
C383       C390 0.039       .   A
C383       H392 0.030       .   A
O384       H389 0.028       .   A
C386       N388 0.032       .   A
C390       H391 0.030       .   A
C361       C362 0.038       .   A
C361       C366 0.038       .   A
C362       C363 0.037       .   A
C362      Cl369 0.049       .   A
C363       C364 0.039       .   A
C363       O368 0.036       .   A
C364       C365 0.039       .   A
C364       C367 0.040       .   A
C365       C366 0.038       .   A
C365       H371 0.031       .   A
C366       C370 0.031       .   A
C367       C374 0.039       .   A
C367       H376 0.030       .   A
O368       H373 0.028       .   A
C370       N372 0.032       .   A
C374       H375 0.030       .   A
C345       C346 0.038       .   A
C345       C350 0.038       .   A
C346       C347 0.037       .   A
C346      Cl353 0.049       .   A
C347       C348 0.039       .   A
C347       O352 0.036       .   A
C348       C349 0.039       .   A
C348       C351 0.040       .   A
C349       C350 0.038       .   A
C349       H355 0.031       .   A
C350       C354 0.031       .   A
C351       C358 0.039       .   A
C351       H360 0.030       .   A
O352       H357 0.028       .   A
C354       N356 0.032       .   A
C358       H359 0.030       .   A
C329       C330 0.038       .   A
C329       C334 0.038       .   A
C330       C331 0.037       .   A
C330      Cl337 0.049       .   A
C331       C332 0.039       .   A
C331       O336 0.036       .   A
C332       C333 0.039       .   A
C332       C335 0.040       .   A
C333       C334 0.038       .   A
C333       H339 0.031       .   A
C334       C338 0.031       .   A
C335       C342 0.039       .   A
C335       H344 0.030       .   A
O336       H341 0.028       .   A
C338       N340 0.032       .   A
C342       H343 0.030       .   A
C313       C314 0.038       .   A
C313       C318 0.038       .   A
C314       C315 0.037       .   A
C314      Cl321 0.049       .   A
C315       C316 0.039       .   A
C315       O320 0.036       .   A
C316       C317 0.039       .   A
C316       C319 0.040       .   A
C317       C318 0.038       .   A
C317       H323 0.031       .   A
C318       C322 0.031       .   A
C319       C326 0.039       .   A
C319       H328 0.030       .   A
O320       H325 0.028       .   A
C322       N324 0.032       .   A
C326       H327 0.030       .   A
C297       C298 0.038       .   A
C297       C302 0.038       .   A
C298       C299 0.037       .   A
C298      Cl305 0.049       .   A
C299       C300 0.039       .   A
C299       O304 0.036       .   A
C300       C301 0.039       .   A
C300       C303 0.040       .   A
C301       C302 0.038       .   A
C301       H307 0.031       .   A
C302       C306 0.031       .   A
C303       C310 0.039       .   A
C303       H312 0.030       .   A
O304       H309 0.028       .   A
C306       N308 0.032       .   A
C310       H311 0.030       .   A
C281       C282 0.038       .   A
C281       C286 0.038       .   A
C282       C283 0.037       .   A
C282      Cl289 0.049       .   A
C283       C284 0.039       .   A
C283       O288 0.036       .   A
C284       C285 0.039       .   A
C284       C287 0.040       .   A
C285       C286 0.038       .   A
C285       H291 0.031       .   A
C286       C290 0.031       .   A
C287       C294 0.039       .   A
C287       H296 0.030       .   A
O288       H293 0.028       .   A
C290       N292 0.032       .   A
C294       H295 0.030       .   A
C265       C266 0.038       .   A
C265       C270 0.038       .   A
C266       C267 0.037       .   A
C266      Cl273 0.049       .   A
C267       C268 0.039       .   A
C267       O272 0.036       .   A
C268       C269 0.039       .   A
C268       C271 0.040       .   A
C269       C270 0.038       .   A
C269       H275 0.031       .   A
C270       C274 0.031       .   A
C271       C278 0.039       .   A
C271       H280 0.030       .   A
O272       H277 0.028       .   A
C274       N276 0.032       .   A
C278       H279 0.030       .   A
C249       C250 0.038       .   A
C249       C254 0.038       .   A
C250       C251 0.037       .   A
C250      Cl257 0.049       .   A
C251       C252 0.039       .   A
C251       O256 0.036       .   A
C252       C253 0.039       .   A
C252       C255 0.040       .   A
C253       C254 0.038       .   A
C253       H259 0.031       .   A
C254       C258 0.031       .   A
C255       C262 0.039       .   A
C255       H264 0.030       .   A
O256       H261 0.028       .   A
C258       N260 0.032       .   A
C262       H263 0.030       .   A
C233       C234 0.038       .   A
C233       C238 0.038       .   A
C234       C235 0.037       .   A
C234      Cl241 0.049       .   A
C235       C236 0.039       .   A
C235       O240 0.036       .   A
C236       C237 0.039       .   A
C236       C239 0.040       .   A
C237       C238 0.038       .   A
C237       H243 0.031       .   A
C238       C242 0.031       .   A
C239       C246 0.039       .   A
C239       H248 0.030       .   A
O240       H245 0.028       .   A
C242       N244 0.032       .   A
C246       H247 0.030       .   A
C217       C218 0.038       .   A
C217       C222 0.038       .   A
C218       C219 0.037       .   A
C218      Cl225 0.049       .   A
C219       C220 0.039       .   A
C219       O224 0.036       .   A
C220       C221 0.039       .   A
C220       C223 0.040       .   A
C221       C222 0.038       .   A
C221       H227 0.031       .   A
C222       C226 0.031       .   A
C223       C230 0.039       .   A
C223       H232 0.030       .   A
O224       H229 0.028       .   A
C226       N228 0.032       .   A
C230       H231 0.030       .   A
C201       C202 0.038       .   A
C201       C206 0.038       .   A
C202       C203 0.037       .   A
C202      Cl209 0.049       .   A
C203       C204 0.039       .   A
C203       O208 0.036       .   A
C204       C205 0.039       .   A
C204       C207 0.040       .   A
C205       C206 0.038       .   A
C205       H211 0.031       .   A
C206       C210 0.031       .   A
C207       C214 0.039       .   A
C207       H216 0.030       .   A
O208       H213 0.028       .   A
C210       N212 0.032       .   A
C214       H215 0.030       .   A
C185       C186 0.038       .   A
C185       C190 0.038       .   A
C186       C187 0.037       .   A
C186      Cl193 0.049       .   A
C187       C188 0.039       .   A
C187       O192 0.036       .   A
C188       C189 0.039       .   A
C188       C191 0.040       .   A
C189       C190 0.038       .   A
C189       H195 0.031       .   A
C190       C194 0.031       .   A
C191       C198 0.039       .   A
C191       H200 0.030       .   A
O192       H197 0.028       .   A
C194       N196 0.032       .   A
C198       H199 0.030       .   A
