data_pcu_v1-6c_Zn_1_Ch_1-52_fer_tobacco
_audit_creation_date              2021-04-07
_audit_creation_method            'tobacco_3.0'
_symmetry_space_group_name_H-M    'P1'
_symmetry_Int_Tables_number       1
_symmetry_cell_setting            triclinic
loop_
_symmetry_equiv_pos_as_xyz
  x,y,z
_cell_length_a                    46.99524937244601
_cell_length_b                    46.99524937244601
_cell_length_c                    46.99524937244601
_cell_angle_alpha                 90.0
_cell_angle_beta                  90.0
_cell_angle_gamma                 90.0
loop_
_atom_site_label
_atom_site_type_symbol
_atom_site_fract_x
_atom_site_fract_y
_atom_site_fract_z
_atom_site_charge
Zn1       Zn   -0.0238577306   -0.0238577306    0.0238577306          1.4972
Zn2       Zn    0.0238577306    0.0238577306    0.0238577306          1.4936
Zn3       Zn    0.0238577306   -0.0238577306   -0.0238577306          1.4911
Zn4       Zn   -0.0238577306    0.0238577306   -0.0238577306          1.4948
O5         O    0.0000000000    0.0000000000    0.0000000000         -2.2243
O6         O   -0.0175336871   -0.0175336871    0.0637638919         -1.1306
O7         O    0.0637638919    0.0175336871    0.0175336871         -1.1288
O8         O    0.0175336871   -0.0637638919   -0.0175336871          -1.124
O9         O    0.0175336871    0.0175336871    0.0637638919         -1.1308
O10        O   -0.0175336871   -0.0637638919    0.0175336871         -1.1268
O11        O    0.0637638919   -0.0175336871   -0.0175336871         -1.1326
O12        O   -0.0175336871    0.0175336871   -0.0637638919         -1.1265
O13        O    0.0175336871    0.0637638919    0.0175336871         -1.1341
O14        O    0.0175336871   -0.0175336871   -0.0637638919          -1.128
O15        O   -0.0175336871    0.0637638919   -0.0175336871         -1.1327
O16        O   -0.0637638919    0.0175336871   -0.0175336871         -1.1317
O17        O   -0.0637638919   -0.0175336871    0.0175336871         -1.1296
C18        C   -0.0000000000   -0.0000000000    0.0762374931          0.3883
C19        C    0.0762374931   -0.0000000000   -0.0000000000          0.3932
C20        C   -0.0000000000   -0.0762374931    0.0000000000          0.3828
C21        C    0.0000000000    0.0000000000   -0.0762374931          0.3865
C22        C    0.0000000000    0.0762374931   -0.0000000000          0.3979
C23        C   -0.0762374931    0.0000000000    0.0000000000          0.3884
Zn24      Zn    0.9761422694   -0.0238577306    0.4761422694          1.4972
Zn25      Zn    1.0238577306   -0.0238577306    0.5238577306          1.4936
Zn26      Zn    1.0238577306    0.0238577306    0.4761422694          1.4911
Zn27      Zn    0.9761422694    0.0238577306    0.5238577306          1.4948
O28        O    1.0000000000    0.0000000000    0.5000000000         -2.2243
O29        O    0.9824663129   -0.0637638919    0.4824663129         -1.1306
O30        O    1.0637638919   -0.0175336871    0.5175336871         -1.1288
O31        O    1.0175336871    0.0175336871    0.4362361081          -1.124
O32        O    1.0175336871   -0.0637638919    0.5175336871         -1.1308
O33        O    0.9824663129   -0.0175336871    0.4362361081         -1.1268
O34        O    1.0637638919    0.0175336871    0.4824663129         -1.1326
O35        O    0.9824663129    0.0637638919    0.5175336871         -1.1265
O36        O    1.0175336871   -0.0175336871    0.5637638919         -1.1341
O37        O    1.0175336871    0.0637638919    0.4824663129          -1.128
O38        O    0.9824663129    0.0175336871    0.5637638919         -1.1327
O39        O    0.9362361081    0.0175336871    0.5175336871         -1.1317
O40        O    0.9362361081   -0.0175336871    0.4824663129         -1.1296
C41        C    1.0000000000   -0.0762374931    0.5000000000          0.3883
C42        C    1.0762374931    0.0000000000    0.5000000000          0.3932
C43        C    1.0000000000    0.0000000000    0.4237625069          0.3828
C44        C    1.0000000000    0.0762374931    0.5000000000          0.3865
C45        C    1.0000000000    0.0000000000    0.5762374931          0.3979
C46        C    0.9237625069    0.0000000000    0.5000000000          0.3884
Zn47      Zn    1.0238577306    0.4761422694   -0.0238577306          1.4972
Zn48      Zn    0.9761422694    0.4761422694    0.0238577306          1.4936
Zn49      Zn    1.0238577306    0.5238577306    0.0238577306          1.4911
Zn50      Zn    0.9761422694    0.5238577306   -0.0238577306          1.4948
O51        O    1.0000000000    0.5000000000    0.0000000000         -2.2243
O52        O    1.0175336871    0.4362361081   -0.0175336871         -1.1306
O53        O    0.9824663129    0.4824663129    0.0637638919         -1.1288
O54        O    1.0637638919    0.5175336871    0.0175336871          -1.124
O55        O    0.9824663129    0.4362361081    0.0175336871         -1.1308
O56        O    1.0637638919    0.4824663129   -0.0175336871         -1.1268
O57        O    1.0175336871    0.5175336871    0.0637638919         -1.1326
O58        O    0.9824663129    0.5637638919   -0.0175336871         -1.1265
O59        O    0.9362361081    0.4824663129    0.0175336871         -1.1341
O60        O    1.0175336871    0.5637638919    0.0175336871          -1.128
O61        O    0.9362361081    0.5175336871   -0.0175336871         -1.1327
O62        O    0.9824663129    0.5175336871   -0.0637638919         -1.1317
O63        O    1.0175336871    0.4824663129   -0.0637638919         -1.1296
C64        C    1.0000000000    0.4237625069    0.0000000000          0.3883
C65        C    1.0000000000    0.5000000000    0.0762374931          0.3932
C66        C    1.0762374931    0.5000000000    0.0000000000          0.3828
C67        C    1.0000000000    0.5762374931    0.0000000000          0.3865
C68        C    0.9237625069    0.5000000000    0.0000000000          0.3979
C69        C    1.0000000000    0.5000000000   -0.0762374931          0.3884
Zn70      Zn    0.9761422694    0.4761422694    0.5238577306          1.4972
Zn71      Zn    1.0238577306    0.4761422694    0.4761422694          1.4936
Zn72      Zn    0.9761422694    0.5238577306    0.4761422694          1.4911
Zn73      Zn    1.0238577306    0.5238577306    0.5238577306          1.4948
O74        O    1.0000000000    0.5000000000    0.5000000000         -2.2243
O75        O    0.9824663129    0.4362361081    0.5175336871         -1.1306
O76        O    1.0175336871    0.4824663129    0.4362361081         -1.1288
O77        O    0.9362361081    0.5175336871    0.4824663129          -1.124
O78        O    1.0175336871    0.4362361081    0.4824663129         -1.1308
O79        O    0.9362361081    0.4824663129    0.5175336871         -1.1268
O80        O    0.9824663129    0.5175336871    0.4362361081         -1.1326
O81        O    1.0175336871    0.5637638919    0.5175336871         -1.1265
O82        O    1.0637638919    0.4824663129    0.4824663129         -1.1341
O83        O    0.9824663129    0.5637638919    0.4824663129          -1.128
O84        O    1.0637638919    0.5175336871    0.5175336871         -1.1327
O85        O    1.0175336871    0.5175336871    0.5637638919         -1.1317
O86        O    0.9824663129    0.4824663129    0.5637638919         -1.1296
C87        C    1.0000000000    0.4237625069    0.5000000000          0.3883
C88        C    1.0000000000    0.5000000000    0.4237625069          0.3932
C89        C    0.9237625069    0.5000000000    0.5000000000          0.3828
C90        C    1.0000000000    0.5762374931    0.5000000000          0.3865
C91        C    1.0762374931    0.5000000000    0.5000000000          0.3979
C92        C    1.0000000000    0.5000000000    0.5762374931          0.3884
Zn93      Zn    0.4761422694    0.9761422694   -0.0238577306          1.4972
Zn94      Zn    0.4761422694    1.0238577306    0.0238577306          1.4936
Zn95      Zn    0.5238577306    0.9761422694    0.0238577306          1.4911
Zn96      Zn    0.5238577306    1.0238577306   -0.0238577306          1.4948
O97        O    0.5000000000    1.0000000000    0.0000000000         -2.2243
O98        O    0.4362361081    0.9824663129   -0.0175336871         -1.1306
O99        O    0.4824663129    1.0175336871    0.0637638919         -1.1288
O100       O    0.5175336871    0.9362361081    0.0175336871          -1.124
O101       O    0.4362361081    1.0175336871    0.0175336871         -1.1308
O102       O    0.4824663129    0.9362361081   -0.0175336871         -1.1268
O103       O    0.5175336871    0.9824663129    0.0637638919         -1.1326
O104       O    0.5637638919    1.0175336871   -0.0175336871         -1.1265
O105       O    0.4824663129    1.0637638919    0.0175336871         -1.1341
O106       O    0.5637638919    0.9824663129    0.0175336871          -1.128
O107       O    0.5175336871    1.0637638919   -0.0175336871         -1.1327
O108       O    0.5175336871    1.0175336871   -0.0637638919         -1.1317
O109       O    0.4824663129    0.9824663129   -0.0637638919         -1.1296
C110       C    0.4237625069    1.0000000000    0.0000000000          0.3883
C111       C    0.5000000000    1.0000000000    0.0762374931          0.3932
C112       C    0.5000000000    0.9237625069    0.0000000000          0.3828
C113       C    0.5762374931    1.0000000000    0.0000000000          0.3865
C114       C    0.5000000000    1.0762374931    0.0000000000          0.3979
C115       C    0.5000000000    1.0000000000   -0.0762374931          0.3884
Zn116     Zn    0.4761422694    1.0238577306    0.5238577306          1.4972
Zn117     Zn    0.4761422694    0.9761422694    0.4761422694          1.4936
Zn118     Zn    0.5238577306    1.0238577306    0.4761422694          1.4911
Zn119     Zn    0.5238577306    0.9761422694    0.5238577306          1.4948
O120       O    0.5000000000    1.0000000000    0.5000000000         -2.2243
O121       O    0.4362361081    1.0175336871    0.5175336871         -1.1306
O122       O    0.4824663129    0.9824663129    0.4362361081         -1.1288
O123       O    0.5175336871    1.0637638919    0.4824663129          -1.124
O124       O    0.4362361081    0.9824663129    0.4824663129         -1.1308
O125       O    0.4824663129    1.0637638919    0.5175336871         -1.1268
O126       O    0.5175336871    1.0175336871    0.4362361081         -1.1326
O127       O    0.5637638919    0.9824663129    0.5175336871         -1.1265
O128       O    0.4824663129    0.9362361081    0.4824663129         -1.1341
O129       O    0.5637638919    1.0175336871    0.4824663129          -1.128
O130       O    0.5175336871    0.9362361081    0.5175336871         -1.1327
O131       O    0.5175336871    0.9824663129    0.5637638919         -1.1317
O132       O    0.4824663129    1.0175336871    0.5637638919         -1.1296
C133       C    0.4237625069    1.0000000000    0.5000000000          0.3883
C134       C    0.5000000000    1.0000000000    0.4237625069          0.3932
C135       C    0.5000000000    1.0762374931    0.5000000000          0.3828
C136       C    0.5762374931    1.0000000000    0.5000000000          0.3865
C137       C    0.5000000000    0.9237625069    0.5000000000          0.3979
C138       C    0.5000000000    1.0000000000    0.5762374931          0.3884
Zn139     Zn    0.4761422694    0.5238577306   -0.0238577306          1.4972
Zn140     Zn    0.4761422694    0.4761422694    0.0238577306          1.4936
Zn141     Zn    0.5238577306    0.4761422694   -0.0238577306          1.4911
Zn142     Zn    0.5238577306    0.5238577306    0.0238577306          1.4948
O143       O    0.5000000000    0.5000000000    0.0000000000         -2.2243
O144       O    0.4362361081    0.5175336871   -0.0175336871         -1.1306
O145       O    0.4824663129    0.4362361081    0.0175336871         -1.1288
O146       O    0.5175336871    0.4824663129   -0.0637638919          -1.124
O147       O    0.4362361081    0.4824663129    0.0175336871         -1.1308
O148       O    0.4824663129    0.5175336871   -0.0637638919         -1.1268
O149       O    0.5175336871    0.4362361081   -0.0175336871         -1.1326
O150       O    0.5637638919    0.5175336871    0.0175336871         -1.1265
O151       O    0.4824663129    0.4824663129    0.0637638919         -1.1341
O152       O    0.5637638919    0.4824663129   -0.0175336871          -1.128
O153       O    0.5175336871    0.5175336871    0.0637638919         -1.1327
O154       O    0.5175336871    0.5637638919    0.0175336871         -1.1317
O155       O    0.4824663129    0.5637638919   -0.0175336871         -1.1296
C156       C    0.4237625069    0.5000000000    0.0000000000          0.3883
C157       C    0.5000000000    0.4237625069    0.0000000000          0.3932
C158       C    0.5000000000    0.5000000000   -0.0762374931          0.3828
C159       C    0.5762374931    0.5000000000    0.0000000000          0.3865
C160       C    0.5000000000    0.5000000000    0.0762374931          0.3979
C161       C    0.5000000000    0.5762374931    0.0000000000          0.3884
Zn162     Zn    0.4761422694    0.5238577306    0.4761422694          1.4972
Zn163     Zn    0.4761422694    0.4761422694    0.5238577306          1.4936
Zn164     Zn    0.5238577306    0.4761422694    0.4761422694          1.4911
Zn165     Zn    0.5238577306    0.5238577306    0.5238577306          1.4948
O166       O    0.5000000000    0.5000000000    0.5000000000         -2.2243
O167       O    0.4362361081    0.5175336871    0.4824663129         -1.1306
O168       O    0.4824663129    0.4362361081    0.5175336871         -1.1288
O169       O    0.5175336871    0.4824663129    0.4362361081          -1.124
O170       O    0.4362361081    0.4824663129    0.5175336871         -1.1308
O171       O    0.4824663129    0.5175336871    0.4362361081         -1.1268
O172       O    0.5175336871    0.4362361081    0.4824663129         -1.1326
O173       O    0.5637638919    0.5175336871    0.5175336871         -1.1265
O174       O    0.4824663129    0.4824663129    0.5637638919         -1.1341
O175       O    0.5637638919    0.4824663129    0.4824663129          -1.128
O176       O    0.5175336871    0.5175336871    0.5637638919         -1.1327
O177       O    0.5175336871    0.5637638919    0.5175336871         -1.1317
O178       O    0.4824663129    0.5637638919    0.4824663129         -1.1296
C179       C    0.4237625069    0.5000000000    0.5000000000          0.3883
C180       C    0.5000000000    0.4237625069    0.5000000000          0.3932
C181       C    0.5000000000    0.5000000000    0.4237625069          0.3828
C182       C    0.5762374931    0.5000000000    0.5000000000          0.3865
C183       C    0.5000000000    0.5000000000    0.5762374931          0.3979
C184       C    0.5000000000    0.5762374931    0.5000000000          0.3884
C990       C    0.5000000000    0.5000000000   -0.3909932372         -0.3844
C991       C    0.5256211297    0.5061531456   -0.3796528799         -0.3793
C992       C    0.5302734603    0.5069650067   -0.3511197200         -0.3784
C993       C    0.5097770763    0.5013129292   -0.3315666090         -0.3827
C994       C    0.4841927401    0.4951620133   -0.3430974114          0.6122
C995       C    0.4794381725    0.4946065119   -0.3716572134          0.6115
C996       C    0.5168549161    0.5029416111   -0.2982434038          -0.381
C997       C    0.5527885234    0.5130199164   -0.3469628271         -0.3735
H998       H    0.5430657975    0.5108059476   -0.3944416839         -0.3757
H999       H    0.4581571996    0.4895667271   -0.3792053459          0.6073
H1000      H    0.4665160976    0.4906253985   -0.3288799751          0.6087
O1001      O    0.4950986127    0.4991862505   -0.2749664191         -0.3839
C1002      C    0.5388566925    0.4826687197   -0.2559874142          0.6036
C1003      C    0.5405023933    0.4822940332   -0.2885440075           0.603
C1004      C    0.5014819361    0.4922600174   -0.2184932426          0.6113
H1005      H    0.5616872430    0.4889672684   -0.2953492478          0.6083
H1006      H    0.5492695219    0.4640928114   -0.2466237597          0.5892
H1007      H    0.5492067158    0.5018831628   -0.2478661758         -0.3812
H1008      H    0.5364087013    0.4608892029   -0.2966266848          0.5861
H1009      H    0.4990058851    0.4616772729   -0.2515170825           0.587
C1010      C    0.5068672060    0.4834768195   -0.2494931487          0.6041
H1011      H    0.5252048581    0.5243748465   -0.2946064645         -0.3642
N1012      N    0.5762602961    0.5187196988   -0.3438656798         -0.3688
C1013      C    0.5005737776    0.4967694495   -0.1932558922         -0.3849
C1014      C    0.5035254562    0.5039557664   -0.1614900863         -0.3789
C1015      C    0.4833238693    0.4926239143   -0.1372884108          0.6123
C1016      C    0.5000000000    0.5000000000   -0.1090067628         -0.3815
N1017      N    0.5291902941    0.4922212676   -0.1180280659          0.6125
N1018      N    0.5317007570    0.4967366169   -0.1491748669         -0.3843
H1019      H    0.5460902599    0.5127037497   -0.1520027140         -0.3718
H1020      H    0.5322181643    0.4708898477   -0.1157075941          0.5958
H1021      H    0.4624924360    0.5029204607   -0.1379289085         -0.3797
H1022      H    0.4993168127    0.5231010623   -0.1062320247         -0.3634
H1023      H    0.4804010389    0.4696216825   -0.1392578723          0.5943
H1024      H    0.5017675231    0.5271305774   -0.1605075849         -0.3608
C955       C    0.5000000000    0.5000000000    0.1090067628         -0.3844
C956       C    0.4744264202    0.4936521260    0.1203471201         -0.3793
C957       C    0.4697804002    0.4928048969    0.1488802800         -0.3784
C958       C    0.4902331943    0.4986127321    0.1684333910         -0.3827
C959       C    0.5157699987    0.5049580965    0.1569025886          0.6122
C960       C    0.5205202029    0.5055497511    0.1283427866          0.6115
C961       C    0.4831679492    0.4969302544    0.2017565962          -0.381
C962       C    0.4473120499    0.4865788846    0.1530371729         -0.3735
H963       H    0.4570176523    0.4888667527    0.1055583161         -0.3757
H964       H    0.5417622211    0.5107512798    0.1207946541          0.6073
H965       H    0.5334116185    0.5096290508    0.1711200249          0.6087
O966       O    0.5048950550    0.5008510120    0.2250335809         -0.3839
C967       C    0.4610125884    0.5170351861    0.2440125858          0.6036
C968       C    0.4593640849    0.5173973425    0.2114559925           0.603
C969       C    0.4984592267    0.5077284852    0.2815067574          0.6113
H970       H    0.4382306132    0.5105631419    0.2046507522          0.6083
H971       H    0.4504587487    0.5355313439    0.2533762403          0.5892
H972       H    0.4508090338    0.4977425638    0.2521338242         -0.3812
H973       H    0.4632948265    0.5388326952    0.2033733152          0.5861
H974       H    0.5007025554    0.5383291807    0.2484829175           0.587
C975       C    0.4930072967    0.5164704618    0.2505068513          0.6041
H976       H    0.4749812969    0.4754341191    0.2053935355         -0.3642
N977       N    0.4238843160    0.4807007114    0.1561343202         -0.3688
C978       C    0.4994016634    0.5032260922    0.3067441078         -0.3849
C979       C    0.4965047383    0.4960175290    0.3385099137         -0.3789
C980       C    0.5166195364    0.5075027319    0.3627115892          0.6123
C981       C    0.5000000000    0.5000000000    0.3909932372         -0.3815
N982       N    0.4707513757    0.5075564494    0.3819719341          0.6125
N983       N    0.4682753349    0.5030221330    0.3508251331         -0.3843
H984       H    0.4540077144    0.4869459976    0.3479972860         -0.3718
H985       H    0.4675613197    0.5288642183    0.3842924059          0.5958
H986       H    0.5375286954    0.4973649534    0.3620710915         -0.3797
H987       H    0.5008589032    0.4769048033    0.3937679753         -0.3634
H988       H    0.5193672984    0.5305265328    0.3607421277          0.5943
H989       H    0.4984389172    0.4728567616    0.3394924151         -0.3608
C920       C    0.5000000000    0.8909932372    0.5000000000         -0.3844
C921       C    0.5088911991    0.8796528799    0.4751957651         -0.3793
C922       C    0.5102020366    0.8511197200    0.4706586952         -0.3784
C923       C    0.5023638620    0.8315666090    0.4904225702         -0.3827
C924       C    0.4934788636    0.8430974114    0.5151904694          0.6122
C925       C    0.4924118083    0.8716572134    0.5198569336          0.6115
C926       C    0.5047493497    0.7982434038    0.4835626964          -0.381
C927       C    0.5186592555    0.8469628271    0.4489316281         -0.3735
H928       H    0.5154055365    0.8944416839    0.4583574633         -0.3757
H929       H    0.4850973720    0.8792053459    0.5404670830          0.6073
H930       H    0.4870549122    0.8288799751    0.5322719626          0.6087
O931       O    0.4986603176    0.7749664191    0.5047844578         -0.3839
C932       C    0.4869779825    0.7559874142    0.4594951498          0.6036
C933       C    0.4867836938    0.7885440075    0.4578185542           0.603
C934       C    0.4924659869    0.7184932426    0.4976886992          0.6113
H935       H    0.4957115686    0.7953492478    0.4374808312          0.6083
H936       H    0.4696387813    0.7466237597    0.4471321612          0.5892
H937       H    0.5072001454    0.7478661758    0.4512865000         -0.3812
H938       H    0.4650614513    0.7966266848    0.4595704836          0.5861
H939       H    0.4617949479    0.7515170825    0.4968387230           0.587
C940       C    0.4843175411    0.7494931487    0.4913840558          0.6041
H941       H    0.5269606927    0.7946064645    0.4775826171         -0.3642
N942       N    0.5268670267    0.8438656798    0.4262150234         -0.3688
C943       C    0.4968505714    0.6932558922    0.4990797951         -0.3849
C944       C    0.5043142415    0.6614900863    0.4969235980         -0.3789
C945       C    0.4908616067    0.6372884108    0.5157794088          0.6123
C946       C    0.5000000000    0.6090067628    0.5000000000         -0.3815
N947       N    0.4954276985    0.6180280659    0.4701390555          0.6125
N948       N    0.5001883304    0.6491748669    0.4681322703         -0.3843
H949       H    0.5176196664    0.6520027140    0.4555562753         -0.3718
H950       H    0.4745495505    0.6157075941    0.4648192425          0.5958
H951       H    0.4988420080    0.6379289085    0.5376032645         -0.3797
H952       H    0.5228912658    0.6062320247    0.5031805307         -0.3634
H953       H    0.4676781343    0.6392578723    0.5161943956          0.5943
H954       H    0.5271624500    0.6605075849    0.5011805411         -0.3608
C885       C    0.5000000000    1.3909932372    0.5000000000         -0.3844
C886       C    0.4762846728    1.3796528799    0.4885158046         -0.3793
C887       C    0.4719131548    1.3511197200    0.4867288717         -0.3784
C888       C    0.4907290630    1.3315666090    0.4966288382         -0.3827
C889       C    0.5144089224    1.3430974114    0.5081029956          0.6122
C890       C    0.5189350800    1.3716572134    0.5096613257          0.6115
C891       C    0.4841625080    1.2982434038    0.4935258114          -0.381
C892       C    0.4512112145    1.3469628271    0.4760041496         -0.3735
H893       H    0.4602365793    1.3944416839    0.4802439430         -0.3757
H894       H    0.5386482623    1.3792053459    0.5191307330          0.6073
H895       H    0.5307084555    1.3288799751    0.5163109054          0.6087
O896       O    0.5046144225    1.2749664191    0.5018419801         -0.3839
C897       C    0.4583379720    1.2559874142    0.5086308316          0.6036
C898       C    0.4566502188    1.2885440075    0.5086453219           0.603
C899       C    0.4968988876    1.2184932426    0.5072447614          0.6113
H900       H    0.4373798716    1.2953492478    0.4976007012          0.6083
H901       H    0.4441973866    1.2466237597    0.5245536212          0.5892
H902       H    0.4523313594    1.2478661758    0.4876489726         -0.3812
H903       H    0.4560770091    1.2966266848    0.5304305578          0.5861
H904       H    0.4927848283    1.2515170825    0.5376505110           0.587
C905       C    0.4897616921    1.2494931487    0.5146748445          0.6041
H906       H    0.4805837793    1.2946064645    0.4708036238         -0.3642
N907       N    0.4294987867    1.3438656798    0.4654219893         -0.3688
C908       C    0.4987493699    1.1932558922    0.5030334142         -0.3849
C909       C    0.4974009335    1.1614900863    0.4953824484         -0.3789
C910       C    0.5147155595    1.1372884108    0.5107681142          0.6123
C911       C    0.5000000000    1.1090067628    0.5000000000         -0.3815
N912       N    0.4698218234    1.1180280659    0.5013636736          0.6125
N913       N    0.4683338577    1.1491748669    0.4964162742         -0.3843
H914       H    0.4576873288    1.1520027140    0.4777438734         -0.3718
H915       H    0.4623071149    1.1157075941    0.5215559154          0.5958
H916       H    0.5372656615    1.1379289085    0.5051591586         -0.3797
H917       H    0.5056021698    1.1062320247    0.4775781018         -0.3634
H918       H    0.5126572841    1.1392578723    0.5338637654          0.5943
H919       H    0.5040687954    1.1605075849    0.4731180865         -0.3608
C850       C    0.5000000000    0.6090067628    0.0000000000         -0.3844
C851       C    0.4831339864    0.6203471201    0.0202445319         -0.3793
C852       C    0.4798888987    0.6488802800    0.0236756694         -0.3784
C853       C    0.4929453145    0.6684333910    0.0068953910         -0.3827
C854       C    0.5097831596    0.6569025886   -0.0133253656          0.6122
C855       C    0.5132634190    0.6283427866   -0.0166120493          0.6115
C856       C    0.4882435728    0.7017565962    0.0124309167          -0.381
C857       C    0.4654546305    0.6530371729    0.0419852816         -0.3735
H858       H    0.4719272855    0.6055583161    0.0343999144         -0.3757
H859       H    0.5273148197    0.6207946541   -0.0333702525          0.6073
H860       H    0.5212452905    0.6711200249   -0.0275262148          0.6087
O861       O    0.5034436533    0.7250335809   -0.0035814853         -0.3839
C862       C    0.4584876313    0.7440125858    0.0093241124          0.6036
C863       C    0.4569441963    0.7114559925    0.0100071421           0.603
C864       C    0.4941864454    0.7815067574   -0.0053203429          0.6113
H865       H    0.4439460008    0.7046507522    0.0280176068          0.6083
H866       H    0.4390378297    0.7533762403    0.0006525147          0.5892
H867       H    0.4616713194    0.7521338242    0.0309153590         -0.3812
H868       H    0.4474352164    0.7033733152   -0.0096016410          0.5861
H869       H    0.4778958092    0.7484829175   -0.0313213095           0.587
C870       C    0.4846197755    0.7505068513   -0.0091445451          0.6041
H871       H    0.4943568578    0.7053935355    0.0346059671         -0.3642
N872       N    0.4500410501    0.6561343202    0.0605818720         -0.3688
C873       C    0.4976093997    0.8067441078   -0.0022473780         -0.3849
C874       C    0.4995372084    0.8385099137    0.0052785181         -0.3789
C875       C    0.5089630795    0.8627115892   -0.0158796467          0.6123
C876       C    0.5000000000    0.8909932372    0.0000000000         -0.3815
N877       N    0.4719466741    0.8819719341    0.0112068218          0.6125
N878       N    0.4726321072    0.8508251331    0.0163274647         -0.3843
H879       H    0.4706363731    0.8479972860    0.0377289640         -0.3718
H880       H    0.4567714813    0.8842924059   -0.0040873273          0.5958
H881       H    0.5318188749    0.8620710915   -0.0200725098         -0.3797
H882       H    0.5143527420    0.8937679753    0.0181142105         -0.3634
H883       H    0.4975607096    0.8607421277   -0.0360695344          0.5943
H884       H    0.5147957551    0.8394924151    0.0228096032         -0.3608
C815       C    0.5000000000    1.3909932372    0.0000000000         -0.3844
C816       C    0.5164219581    1.3796528799   -0.0206063772         -0.3793
C817       C    0.5191271745    1.3511197200   -0.0244774368         -0.3784
C818       C    0.5053288811    1.3315666090   -0.0083016884         -0.3827
C819       C    0.4889245207    1.3430974114    0.0122722997          0.6122
C820       C    0.4864082685    1.3716572134    0.0163445190          0.6115
C821       C    0.5098010128    1.2982434038   -0.0140243153          -0.381
C822       C    0.5341450853    1.3469628271   -0.0423114591         -0.3735
H823       H    0.5280229168    1.3944416839   -0.0344404929         -0.3757
H824       H    0.4728325024    1.3792053459    0.0334903001          0.6073
H825       H    0.4773306082    1.3288799751    0.0263657647          0.6087
O826       O    0.4971876269    1.2749664191    0.0040958934         -0.3839
C827       C    0.5007498939    1.2559874142   -0.0425400222          0.6036
C828       C    0.5011072048    1.2885440075   -0.0441895827           0.603
C829       C    0.4936153743    1.2184932426   -0.0046195260          0.6113
H830       H    0.5161221012    1.2953492478   -0.0605567087          0.6083
H831       H    0.4883296166    1.2466237597   -0.0598382330          0.5892
H832       H    0.5225392552    1.2478661758   -0.0437816075         -0.3812
H833       H    0.4799822720    1.2966266848   -0.0495432997          0.5861
H834       H    0.4648605741    1.2515170825   -0.0153245042           0.587
C835       C    0.4879382444    1.2494931487   -0.0132169611          0.6041
H836       H    0.5327536957    1.2946064645   -0.0125145287         -0.3642
N837       N    0.5492463209    1.3438656798   -0.0611625684         -0.3688
C838       C    0.4973162042    1.1932558922   -0.0018875692         -0.3849
C839       C    0.5050763450    1.1614900863   -0.0015190954         -0.3789
C840       C    0.4862572622    1.1372884108    0.0119848710          0.6123
C841       C    0.5000000000    1.1090067628    0.0000000000         -0.3815
N842       N    0.5053114681    1.1180280659   -0.0297383634          0.6125
N843       N    0.5104650390    1.1491748669   -0.0301010070         -0.3843
H844       H    0.5310227344    1.1520027140   -0.0363770156         -0.3718
H845       H    0.4872681774    1.1157075941   -0.0415127904          0.5958
H846       H    0.4867657967    1.1379289085    0.0352165062         -0.3797
H847       H    0.5206391958    1.1062320247    0.0103994913         -0.3634
H848       H    0.4641808817    1.1392578723    0.0048941002          0.5943
H849       H    0.5253273264    1.1605075849    0.0098852874         -0.3608
C780       C    0.5000000000    1.0000000000   -0.3909932372         -0.3844
C781       C    0.5256211297    1.0061531456   -0.3796528799         -0.3793
C782       C    0.5302734603    1.0069650067   -0.3511197200         -0.3784
C783       C    0.5097770763    1.0013129292   -0.3315666090         -0.3827
C784       C    0.4841927401    0.9951620133   -0.3430974114          0.6122
C785       C    0.4794381725    0.9946065119   -0.3716572134          0.6115
C786       C    0.5168549161    1.0029416111   -0.2982434038          -0.381
C787       C    0.5527885234    1.0130199164   -0.3469628271         -0.3735
H788       H    0.5430657975    1.0108059476   -0.3944416839         -0.3757
H789       H    0.4581571996    0.9895667271   -0.3792053459          0.6073
H790       H    0.4665160976    0.9906253985   -0.3288799751          0.6087
O791       O    0.4950986127    0.9991862505   -0.2749664191         -0.3839
C792       C    0.5388566925    0.9826687197   -0.2559874142          0.6036
C793       C    0.5405023933    0.9822940332   -0.2885440075           0.603
C794       C    0.5014819361    0.9922600174   -0.2184932426          0.6113
H795       H    0.5616872430    0.9889672684   -0.2953492478          0.6083
H796       H    0.5492695219    0.9640928114   -0.2466237597          0.5892
H797       H    0.5492067158    1.0018831628   -0.2478661758         -0.3812
H798       H    0.5364087013    0.9608892029   -0.2966266848          0.5861
H799       H    0.4990058851    0.9616772729   -0.2515170825           0.587
C800       C    0.5068672060    0.9834768195   -0.2494931487          0.6041
H801       H    0.5252048581    1.0243748465   -0.2946064645         -0.3642
N802       N    0.5762602961    1.0187196988   -0.3438656798         -0.3688
C803       C    0.5005737776    0.9967694495   -0.1932558922         -0.3849
C804       C    0.5035254562    1.0039557664   -0.1614900863         -0.3789
C805       C    0.4833238693    0.9926239143   -0.1372884108          0.6123
C806       C    0.5000000000    1.0000000000   -0.1090067628         -0.3815
N807       N    0.5291902941    0.9922212676   -0.1180280659          0.6125
N808       N    0.5317007570    0.9967366169   -0.1491748669         -0.3843
H809       H    0.5460902599    1.0127037497   -0.1520027140         -0.3718
H810       H    0.5322181643    0.9708898477   -0.1157075941          0.5958
H811       H    0.4624924360    1.0029204607   -0.1379289085         -0.3797
H812       H    0.4993168127    1.0231010623   -0.1062320247         -0.3634
H813       H    0.4804010389    0.9696216825   -0.1392578723          0.5943
H814       H    0.5017675231    1.0271305774   -0.1605075849         -0.3608
C745       C    0.5000000000    1.0000000000    0.3909932372         -0.3844
C746       C    0.4744264202    1.0063478740    0.3796528799         -0.3793
C747       C    0.4697804002    1.0071951031    0.3511197200         -0.3784
C748       C    0.4902331943    1.0013872679    0.3315666090         -0.3827
C749       C    0.5157699987    0.9950419035    0.3430974114          0.6122
C750       C    0.5205202029    0.9944502489    0.3716572134          0.6115
C751       C    0.4831679492    1.0030697456    0.2982434038          -0.381
C752       C    0.4473120499    1.0134211154    0.3469628271         -0.3735
H753       H    0.4570176523    1.0111332473    0.3944416839         -0.3757
H754       H    0.5417622211    0.9892487202    0.3792053459          0.6073
H755       H    0.5334116185    0.9903709492    0.3288799751          0.6087
O756       O    0.5048950550    0.9991489880    0.2749664191         -0.3839
C757       C    0.4610125884    0.9829648139    0.2559874142          0.6036
C758       C    0.4593640849    0.9826026575    0.2885440075           0.603
C759       C    0.4984592267    0.9922715148    0.2184932426          0.6113
H760       H    0.4382306132    0.9894368581    0.2953492478          0.6083
H761       H    0.4504587487    0.9644686561    0.2466237597          0.5892
H762       H    0.4508090338    1.0022574362    0.2478661758         -0.3812
H763       H    0.4632948265    0.9611673048    0.2966266848          0.5861
H764       H    0.5007025554    0.9616708193    0.2515170825           0.587
C765       C    0.4930072967    0.9835295382    0.2494931487          0.6041
H766       H    0.4749812969    1.0245658809    0.2946064645         -0.3642
N767       N    0.4238843160    1.0192992886    0.3438656798         -0.3688
C768       C    0.4994016634    0.9967739078    0.1932558922         -0.3849
C769       C    0.4965047383    1.0039824710    0.1614900863         -0.3789
C770       C    0.5166195364    0.9924972681    0.1372884108          0.6123
C771       C    0.5000000000    1.0000000000    0.1090067628         -0.3815
N772       N    0.4707513757    0.9924435506    0.1180280659          0.6125
N773       N    0.4682753349    0.9969778670    0.1491748669         -0.3843
H774       H    0.4540077144    1.0130540024    0.1520027140         -0.3718
H775       H    0.4675613197    0.9711357817    0.1157075941          0.5958
H776       H    0.5375286954    1.0026350466    0.1379289085         -0.3797
H777       H    0.5008589032    1.0230951967    0.1062320247         -0.3634
H778       H    0.5193672984    0.9694734672    0.1392578723          0.5943
H779       H    0.4984389172    1.0271432384    0.1605075849         -0.3608
C710       C    0.8909932372    0.5000000000    0.5000000000         -0.3844
C711       C    0.8796528799    0.4910587513    0.5247862373         -0.3793
C712       C    0.8511197200    0.4891800145    0.5291190939         -0.3784
C713       C    0.8315666090    0.4957232383    0.5088895621         -0.3827
C714       C    0.8430974114    0.5046461276    0.4841352882          0.6122
C715       C    0.8716572134    0.5067952230    0.4798579194          0.6115
C716       C    0.7982434038    0.4931937981    0.5156976714          -0.381
C717       C    0.8469628271    0.4818638322    0.5512564712         -0.3735
H718       H    0.8944416839    0.4853579762    0.5419170914         -0.3757
H719       H    0.8792053459    0.5142811883    0.4593094509          0.6073
H720       H    0.8288799751    0.5105714640    0.4668744959          0.6087
O721       O    0.7749664191    0.5020140440    0.4954580388         -0.3839
C722       C    0.7559874142    0.4641649693    0.5229361375          0.6036
C723       C    0.7885440075    0.4629474503    0.5241050552           0.603
C724       C    0.7184932426    0.4927193771    0.4969840432          0.6113
H725       H    0.7953492478    0.4568789317    0.5454709862          0.6083
H726       H    0.7466237597    0.4429232690    0.5214256564          0.5892
H727       H    0.7478661758    0.4745285803    0.5421432552         -0.3812
H728       H    0.7966266848    0.4473153864    0.5089207327          0.5861
H729       H    0.7515170825    0.4685308292    0.4781068283           0.587
C730       C    0.7494931487    0.4824219090    0.4966556423          0.6041
H731       H    0.7946064645    0.5065103018    0.5344533595         -0.3642
N732       N    0.8438656798    0.4737251496    0.5739979198         -0.3688
C733       C    0.6932558922    0.4969857799    0.4987037924         -0.3849
C734       C    0.6614900863    0.5013670874    0.5051193751         -0.3789
C735       C    0.6372884108    0.5030032931    0.4820144445          0.6123
C736       C    0.6090067628    0.5000000000    0.5000000000         -0.3815
N737       N    0.6180280659    0.4774581311    0.5201108453          0.6125
N738       N    0.6491748669    0.4798505585    0.5246898292         -0.3843
H739       H    0.6520027140    0.4852811531    0.5454868427         -0.3718
H740       H    0.6157075941    0.4579732926    0.5109163611          0.5958
H741       H    0.6379289085    0.5230544541    0.4702705769         -0.3797
H742       H    0.6062320247    0.5196745640    0.5121258961         -0.3634
H743       H    0.6392578723    0.4853932082    0.4669303299          0.5943
H744       H    0.6605075849    0.5216939567    0.5163879410         -0.3608
C675       C    1.3909932372    0.5000000000    0.5000000000         -0.3844
C676       C    1.3796528799    0.4907739612    0.5246816469         -0.3793
C677       C    1.3511197200    0.4888454614    0.5289925850         -0.3784
C678       C    1.3315666090    0.4956211695    0.5088397312         -0.3827
C679       C    1.3430974114    0.5048284821    0.4841898342          0.6122
C680       C    1.3716572134    0.5070266837    0.4799374931          0.6115
C681       C    1.2982434038    0.4930135100    0.5156182658          -0.381
C682       C    1.3469628271    0.4812748796    0.5510442581         -0.3735
H683       H    1.3944416839    0.4848763234    0.5417457281         -0.3757
H684       H    1.3792053459    0.5147487430    0.4594765783          0.6073
H685       H    1.3288799751    0.5109521624    0.4669984090          0.6087
O686       O    1.2749664191    0.5020662056    0.4954815291         -0.3839
C687       C    1.2559874142    0.4639032634    0.5225220212          0.6036
C688       C    1.2885440075    0.4626723665    0.5236768432           0.603
C689       C    1.2184932426    0.4927545847    0.4969004157          0.6113
H690       H    1.2953492478    0.4563582479    0.5449714864          0.6083
H691       H    1.2466237597    0.4426803624    0.5207670683          0.5892
H692       H    1.2478661758    0.4740450413    0.5418471898         -0.3812
H693       H    1.2966266848    0.4472161675    0.5083135433          0.5861
H694       H    1.2515170825    0.4687849879    0.4777459510           0.587
C695       C    1.2494931487    0.4824615803    0.4964534741          0.6041
H696       H    1.2946064645    0.5061131825    0.5345260338         -0.3642
N697       N    1.3438656798    0.4728748969    0.5736904924         -0.3688
C698       C    1.1932558922    0.4970009039    0.4986691733         -0.3849
C699       C    1.1614900863    0.5013080535    0.5051347761         -0.3789
C700       C    1.1372884108    0.5032101754    0.4820502159          0.6123
C701       C    1.1090067628    0.5000000000    0.5000000000         -0.3815
N702       N    1.1180280659    0.4772280739    0.5198499705          0.6125
N703       N    1.1491748669    0.4795676213    0.5244561968         -0.3843
H704       H    1.1520027140    0.4847584041    0.5453143583         -0.3718
H705       H    1.1157075941    0.4578503900    0.5104317520          0.5958
H706       H    1.1379289085    0.5233952234    0.4705379910         -0.3797
H707       H    1.1062320247    0.5195336451    0.5123516206         -0.3634
H708       H    1.1392578723    0.4857749327    0.4667643428          0.5943
H709       H    1.1605075849    0.5215038319    0.5166366337         -0.3608
C640       C    0.6090067628    0.5000000000    0.0000000000         -0.3844
C641       C    0.6203471201    0.5168329704   -0.0202720151         -0.3793
C642       C    0.6488802800    0.5196154753   -0.0240878984         -0.3784
C643       C    0.6684333910    0.5054947257   -0.0081928624         -0.3827
C644       C    0.6569025886    0.4886800008    0.0120471241          0.6122
C645       C    0.6283427866    0.4860823772    0.0160679258          0.6115
C646       C    0.7017565962    0.5100810181   -0.0138244112          -0.381
C647       C    0.6530371729    0.5349889384   -0.0416163503         -0.3735
H648       H    0.6055583161    0.5287097462   -0.0338700736         -0.3757
H649       H    0.6207946541    0.4721646057    0.0329372729          0.6073
H650       H    0.6711200249    0.4768050550    0.0259046212          0.6087
O651       O    0.7250335809    0.4971058394    0.0040385170         -0.3839
C652       C    0.7440125858    0.5016050941   -0.0425163440          0.6036
C653       C    0.7114559925    0.5019955005   -0.0441583865           0.603
C654       C    0.7815067574    0.4937095498   -0.0047469677          0.6113
H655       H    0.7046507522    0.5173364550   -0.0602202993          0.6083
H656       H    0.7533762403    0.4895351427   -0.0600607920          0.5892
H657       H    0.7521338242    0.5234150149   -0.0433195597         -0.3812
H658       H    0.7033733152    0.4809824855   -0.0499357800          0.5861
H659       H    0.7484829175    0.4651758078   -0.0160279542           0.587
C660       C    0.7505068513    0.4882064361   -0.0134568147          0.6041
H661       H    0.7053935355    0.5329987035   -0.0118534204         -0.3642
N662       N    0.6561343202    0.5504661601   -0.0601600081         -0.3688
C663       C    0.8067441078    0.4973547001   -0.0019411507         -0.3849
C664       C    0.8385099137    0.5051058632   -0.0014167183         -0.3789
C665       C    0.8627115892    0.4860190608    0.0117061230          0.6123
C666       C    0.8909932372    0.5000000000    0.0000000000         -0.3815
N667       N    0.8819719341    0.5059083433   -0.0296255536          0.6125
N668       N    0.8508251331    0.5110681639   -0.0298845011         -0.3843
H669       H    0.8479972860    0.5317478949   -0.0357458876         -0.3718
H670       H    0.8842924059    0.4881054486   -0.0417603966          0.5958
H671       H    0.8620710915    0.4860603742    0.0349432866         -0.3797
H672       H    0.8937679753    0.5204259208    0.0108123810         -0.3634
H673       H    0.8607421277    0.4640897175    0.0041728961          0.5943
H674       H    0.8394924151    0.5251234427    0.0103925452         -0.3608
C605       C    1.3909932372    0.5000000000    0.0000000000         -0.3844
C606       C    1.3796528799    0.5002039000    0.0263488503         -0.3793
C607       C    1.3511197200    0.4999433881    0.0310642964         -0.3784
C608       C    1.3315666090    0.4990694632    0.0098208506         -0.3827
C609       C    1.3430974114    0.4988594204   -0.0164916542          0.6122
C610       C    1.3716572134    0.4993927643   -0.0212487583          0.6115
C611       C    1.2982434038    0.4990565054    0.0170836498          -0.381
C612       C    1.3469628271    0.5007535269    0.0543652336         -0.3735
H613       H    1.3944416839    0.5007940513    0.0443937033         -0.3757
H614       H    1.3792053459    0.4992925998   -0.0431181251          0.6073
H615       H    1.3288799751    0.4984348740   -0.0347362239          0.6087
O616       O    1.2749664191    0.5003149562   -0.0049584864         -0.3839
C617       C    1.2559874142    0.4743359369    0.0339348154          0.6036
C618       C    1.2885440075    0.4735990350    0.0354532674           0.603
C619       C    1.2184932426    0.4921253502   -0.0003055435          0.6113
H620       H    1.2953492478    0.4753121154    0.0575981377          0.6083
H621       H    1.2466237597    0.4538874121    0.0398803362          0.5892
H622       H    1.2478661758    0.4907143249    0.0483593157         -0.3812
H623       H    1.2966266848    0.4536730699    0.0266282469          0.5861
H624       H    1.2515170825    0.4628933353   -0.0096288686           0.587
C625       C    1.2494931487    0.4823523670    0.0029555139          0.6041
H626       H    1.2946064645    0.5180482799    0.0300612309         -0.3642
N627       N    1.3438656798    0.5010015208    0.0785178760         -0.3688
C628       C    1.1932558922    0.4967233567   -0.0001711312         -0.3849
C629       C    1.1614900863    0.5030567208    0.0043282083         -0.3789
C630       C    1.1372884108    0.4965833359   -0.0179116270          0.6123
C631       C    1.1090067628    0.5000000000    0.0000000000         -0.3791
N632       N    1.1180280659    0.4858258502    0.0266772455          0.6125
N633       N    1.1491748669    0.4896570538    0.0301431771         -0.3843
H634       H    1.1520027140    0.5019592657    0.0477688035         -0.3718
H635       H    1.1157075941    0.4643620097    0.0248061429          0.5958
H636       H    1.1379289085    0.5113211631   -0.0358772590         -0.3797
H637       H    1.1062320247    0.5226578325    0.0045550465         -0.3634
H638       H    1.1392578723    0.4748366934   -0.0259570694          0.5943
H639       H    1.1605075849    0.5260292737    0.0078529788         -0.3608
C570       C    1.0000000000    0.5000000000   -0.1090067628         -0.3844
C571       C    1.0255800590    0.4936782859   -0.1203471201         -0.3793
C572       C    1.0302269431    0.4928358092   -0.1488802800         -0.3784
C573       C    1.0097682194    0.4986227223   -0.1684333910         -0.3827
C574       C    0.9842249384    0.5049419644   -0.1569025886          0.6122
C575       C    0.9794741315    0.5055287602   -0.1283427866          0.6115
C576       C    1.0168351817    0.4969474718   -0.2017565962          -0.381
C577       C    1.0527016496    0.4866327807   -0.1530371729         -0.3735
H578       H    1.0429937123    0.4889107207   -0.1055583161         -0.3757
H579       H    0.9582268044    0.5107085600   -0.1207946541          0.6073
H580       H    0.9665785504    0.5095948725   -0.1711200249          0.6087
O581       O    0.9951040771    0.5008460049   -0.2250335809         -0.3839
C582       C    1.0389699677    0.5170750533   -0.2440125858          0.6036
C583       C    1.0406180999    0.5174388957   -0.2114559925           0.603
C584       C    1.0015328678    0.5077300570   -0.2815067574          0.6113
H585       H    1.0617585506    0.5106263138   -0.2046507522          0.6083
H586       H    1.0495048841    0.5355819959   -0.2533762403          0.5892
H587       H    1.0491932494    0.4977928773   -0.2521338242         -0.3812
H588       H    1.0366654364    0.5388702168   -0.2033733152          0.5861
H589       H    0.9992582420    0.5383284421   -0.2484829175           0.587
C590       C    1.0069758537    0.5164776053   -0.2505068513          0.6041
H591       H    1.0250438159    0.4754597210   -0.2053935355         -0.3642
N592       N    1.0761353834    0.4807785723   -0.1561343202         -0.3688
C593       C    1.0005950366    0.5032267025   -0.3067441078         -0.3849
C594       C    1.0034993331    0.4960211061   -0.3385099137         -0.3789
C595       C    0.9833727985    0.5074857296   -0.3627115892          0.6123
C596       C    1.0000000000    0.5000000000   -0.3909932372         -0.3815
N597       N    1.0292408803    0.5075863608   -0.3819719341          0.6125
N598       N    1.0317215574    0.5030545793   -0.3508251331         -0.3843
H599       H    1.0460056131    0.4869930451   -0.3479972860         -0.3718
H600       H    1.0324091411    0.5288973813   -0.3842924059          0.5958
H601       H    0.9624740194    0.4973265705   -0.3620710915         -0.3797
H602       H    0.9991647190    0.4769039369   -0.3937679753         -0.3634
H603       H    0.9806014893    0.5305067080   -0.3607421277          0.5943
H604       H    1.0015888440    0.4728583725   -0.3394924151         -0.3608
C535       C    1.0000000000    0.5000000000    0.1090067628         -0.3844
C536       C    0.9744264202    0.4936521260    0.1203471201         -0.3793
C537       C    0.9697804002    0.4928048969    0.1488802800         -0.3784
C538       C    0.9902331943    0.4986127321    0.1684333910         -0.3827
C539       C    1.0157699987    0.5049580965    0.1569025886          0.6122
C540       C    1.0205202029    0.5055497511    0.1283427866          0.6115
C541       C    0.9831679492    0.4969302544    0.2017565962          -0.381
C542       C    0.9473120499    0.4865788846    0.1530371729         -0.3735
H543       H    0.9570176523    0.4888667527    0.1055583161         -0.3757
H544       H    1.0417622211    0.5107512798    0.1207946541          0.6073
H545       H    1.0334116185    0.5096290508    0.1711200249          0.6087
O546       O    1.0048950550    0.5008510120    0.2250335809         -0.3839
C547       C    0.9610125884    0.5170351861    0.2440125858          0.6036
C548       C    0.9593640849    0.5173973425    0.2114559925           0.603
C549       C    0.9984592267    0.5077284852    0.2815067574          0.6113
H550       H    0.9382306132    0.5105631419    0.2046507522          0.6083
H551       H    0.9504587487    0.5355313439    0.2533762403          0.5892
H552       H    0.9508090338    0.4977425638    0.2521338242         -0.3812
H553       H    0.9632948265    0.5388326952    0.2033733152          0.5861
H554       H    1.0007025554    0.5383291807    0.2484829175           0.587
C555       C    0.9930072967    0.5164704618    0.2505068513          0.6041
H556       H    0.9749812969    0.4754341191    0.2053935355         -0.3642
N557       N    0.9238843160    0.4807007114    0.1561343202         -0.3688
C558       C    0.9994016634    0.5032260922    0.3067441078         -0.3849
C559       C    0.9965047383    0.4960175290    0.3385099137         -0.3789
C560       C    1.0166195364    0.5075027319    0.3627115892          0.6123
C561       C    1.0000000000    0.5000000000    0.3909932372         -0.3815
N562       N    0.9707513757    0.5075564494    0.3819719341          0.6125
N563       N    0.9682753349    0.5030221330    0.3508251331         -0.3843
H564       H    0.9540077144    0.4869459976    0.3479972860         -0.3718
H565       H    0.9675613197    0.5288642183    0.3842924059          0.5958
H566       H    1.0375286954    0.4973649534    0.3620710915         -0.3797
H567       H    1.0008589032    0.4769048033    0.3937679753         -0.3634
H568       H    1.0193672984    0.5305265328    0.3607421277          0.5943
H569       H    0.9984389172    0.4728567616    0.3394924151         -0.3608
C500       C    1.0000000000   -0.3909932372    0.5000000000         -0.3844
C501       C    0.9940344530   -0.3796528799    0.4743345420         -0.3793
C502       C    0.9932566482   -0.3511197200    0.4696763966         -0.3784
C503       C    0.9987586312   -0.3315666090    0.4902135804         -0.3827
C504       C    1.0047222176   -0.3430974114    0.5158422297          0.6122
C505       C    1.0052429217   -0.3716572134    0.5206007339          0.6115
C506       C    0.9971817714   -0.2982434038    0.4831240153          -0.381
C507       C    0.9873666117   -0.3469628271    0.4471176407         -0.3735
H508       H    0.9895093937   -0.3944416839    0.4568563030         -0.3757
H509       H    1.0101268886   -0.3792053459    0.5419180063          0.6073
H510       H    1.0091293958   -0.3288799751    0.5335515872          0.6087
O511       O    1.0007778711   -0.2749664191    0.5049072092         -0.3839
C512       C    1.0176150765   -0.2559874142    0.4612711359          0.6036
C513       C    1.0180017923   -0.2885440075    0.4596282203           0.603
C514       C    1.0077506168   -0.2184932426    0.4985747261          0.6113
H515       H    1.0114837156   -0.2953492478    0.4383951188          0.6083
H516       H    1.0362666638   -0.2466237597    0.4509944792          0.5892
H517       H    0.9984768643   -0.2478661758    0.4507808245         -0.3812
H518       H    1.0393761020   -0.2966266848    0.4638783919          0.5861
H519       H    1.0383144291   -0.2515170825    0.5012744420           0.587
C520       C    1.0165729761   -0.2494931487    0.4932538547          0.6041
H521       H    0.9758101944   -0.2946064645    0.4746174998         -0.3642
N522       N    0.9818386919   -0.3438656798    0.4236047987         -0.3688
C523       C    1.0032346616   -0.1932558922    0.4994498712         -0.3849
C524       C    0.9960701303   -0.1614900863    0.4964456993         -0.3789
C525       C    1.0072538925   -0.1372884108    0.5167296449          0.6123
C526       C    1.0000000000   -0.1090067628    0.5000000000         -0.3815
N527       N    1.0079920688   -0.1180280659    0.4708673931          0.6125
N528       N    1.0034952058   -0.1491748669    0.4683239649         -0.3843
H529       H    0.9876337681   -0.1520027140    0.4538180379         -0.3718
H530       H    1.0293450685   -0.1157075941    0.4679956561          0.5958
H531       H    0.9968052272   -0.1379289085    0.5374851954         -0.3797
H532       H    0.9768945579   -0.1062320247    0.5005141709         -0.3634
H533       H    1.0302341265   -0.1392578723    0.5198206722          0.5943
H534       H    0.9728830791   -0.1605075849    0.4980340477         -0.3608
C465       C    1.0000000000    0.3909932372    0.5000000000         -0.3844
C466       C    0.9940344530    0.3796528799    0.5256654580         -0.3793
C467       C    0.9932566482    0.3511197200    0.5303236034         -0.3784
C468       C    0.9987586312    0.3315666090    0.5097864196         -0.3827
C469       C    1.0047222176    0.3430974114    0.4841577703          0.6122
C470       C    1.0052429217    0.3716572134    0.4793992661          0.6115
C471       C    0.9971817714    0.2982434038    0.5168759847          -0.381
C472       C    0.9873666117    0.3469628271    0.5528823593         -0.3735
H473       H    0.9895093937    0.3944416839    0.5431436970         -0.3757
H474       H    1.0101268886    0.3792053459    0.4580819937          0.6073
H475       H    1.0091293958    0.3288799751    0.4664484128          0.6087
O476       O    1.0007778711    0.2749664191    0.4950927908         -0.3839
C477       C    1.0176150765    0.2559874142    0.5387288641          0.6036
C478       C    1.0180017923    0.2885440075    0.5403717797           0.603
C479       C    1.0077506168    0.2184932426    0.5014252739          0.6113
H480       H    1.0114837156    0.2953492478    0.5616048812          0.6083
H481       H    1.0362666638    0.2466237597    0.5490055208          0.5892
H482       H    0.9984768643    0.2478661758    0.5492191755         -0.3812
H483       H    1.0393761020    0.2966266848    0.5361216081          0.5861
H484       H    1.0383144291    0.2515170825    0.4987255580           0.587
C485       C    1.0165729761    0.2494931487    0.5067461453          0.6041
H486       H    0.9758101944    0.2946064645    0.5253825002         -0.3642
N487       N    0.9818386919    0.3438656798    0.5763952013         -0.3688
C488       C    1.0032346616    0.1932558922    0.5005501288         -0.3849
C489       C    0.9960701303    0.1614900863    0.5035543007         -0.3789
C490       C    1.0072538925    0.1372884108    0.4832703551          0.6123
C491       C    1.0000000000    0.1090067628    0.5000000000         -0.3815
N492       N    1.0079920688    0.1180280659    0.5291326069          0.6125
N493       N    1.0034952058    0.1491748669    0.5316760351         -0.3843
H494       H    0.9876337681    0.1520027140    0.5461819621         -0.3718
H495       H    1.0293450685    0.1157075941    0.5320043439          0.5958
H496       H    0.9968052272    0.1379289085    0.4625148046         -0.3797
H497       H    0.9768945579    0.1062320247    0.4994858291         -0.3634
H498       H    1.0302341265    0.1392578723    0.4801793278          0.5943
H499       H    0.9728830791    0.1605075849    0.5019659523         -0.3608
C430       C    0.8909932372   -0.0000000000    0.5000000000         -0.3844
C431       C    0.8796528799   -0.0140211152    0.5223094557         -0.3793
C432       C    0.8511197200   -0.0167805963    0.5261420218         -0.3784
C433       C    0.8315666090   -0.0060740404    0.5077730971         -0.3827
C434       C    0.8430974114    0.0079223217    0.4854909546          0.6122
C435       C    0.8716572134    0.0109341104    0.4817702524          0.6115
C436       C    0.7982434038   -0.0099970916    0.5138852235          -0.381
C437       C    0.8469628271   -0.0286491690    0.5462100805         -0.3735
H438       H    0.8944416839   -0.0232438242    0.5378306232         -0.3757
H439       H    0.8792053459    0.0226297351    0.4632907612          0.6073
H440       H    0.8288799751    0.0173921354    0.4698907240          0.6087
O441       O    0.7749664191    0.0029362664    0.4959919924         -0.3839
C442       C    0.7559874142   -0.0399017873    0.5147669631          0.6036
C443       C    0.7885440075   -0.0413405671    0.5156493654           0.603
C444       C    0.7184932426   -0.0064700248    0.4955008618          0.6113
H445       H    0.7953492478   -0.0518256672    0.5352297791          0.6083
H446       H    0.7466237597   -0.0603328035    0.5087615521          0.5892
H447       H    0.7478661758   -0.0338723602    0.5357422774         -0.3812
H448       H    0.7966266848   -0.0533751053    0.4974808497          0.5861
H449       H    0.7515170825   -0.0260767500    0.4718997724           0.587
C450       C    0.7494931487   -0.0164606101    0.4929841376          0.6041
H451       H    0.7946064645   -0.0009864266    0.5350491793         -0.3642
N452       N    0.8438656798   -0.0414501384    0.5666929226         -0.3688
C453       C    0.6932558922   -0.0026684808    0.4980908411         -0.3849
C454       C    0.6614900863    0.0002439650    0.5052931475         -0.3789
C455       C    0.6372884108    0.0067695322    0.4830685674          0.6123
C456       C    0.6090067628   -0.0000000000    0.5000000000         -0.3815
N457       N    0.6180280659   -0.0263119052    0.5148413474          0.6125
N458       N    0.6491748669   -0.0249509488    0.5198251813         -0.3843
H459       H    0.6520027140   -0.0240801096    0.5413018842         -0.3718
H460       H    0.6157075941   -0.0433878992    0.5017033147          0.5958
H461       H    0.6379289085    0.0288638078    0.4758706186         -0.3797
H462       H    0.6062320247    0.0166362484    0.5160424768         -0.3634
H463       H    0.6392578723   -0.0072188991    0.4645761529          0.5943
H464       H    0.6605075849    0.0177003359    0.5206371140         -0.3608
C395       C    1.1090067628   -0.0000000000    0.5000000000         -0.3844
C396       C    1.1203471201   -0.0197530464    0.4825609448         -0.3793
C397       C    1.1488802800   -0.0234829305    0.4796641771         -0.3784
C398       C    1.1684333910   -0.0080227349    0.4942597274         -0.3827
C399       C    1.1569025886    0.0116988500    0.5116795758          0.6122
C400       C    1.1283427866    0.0156391565    0.5143977516          0.6115
C401       C    1.2017565962   -0.0135128365    0.4895050240          -0.381
C402       C    1.1530371729   -0.0405378630    0.4637670304         -0.3735
H403       H    1.1055583161   -0.0329852614    0.4702778880         -0.3757
H404       H    1.1207946541    0.0320793623    0.5288199175          0.6073
H405       H    1.1711200249    0.0251904400    0.5239686588          0.6087
O406       O    1.2250335809    0.0039490350    0.5030151132         -0.3839
C407       C    1.2440125858   -0.0424482509    0.4971083181          0.6036
C408       C    1.2114559925   -0.0440777198    0.4966683724           0.603
C409       C    1.2815067574   -0.0049352555    0.5061438358          0.6113
H410       H    1.2046507522   -0.0596677698    0.4808481239          0.6083
H411       H    1.2533762403   -0.0603501129    0.5086415190          0.5892
H412       H    1.2521338242   -0.0425907305    0.4752840770         -0.3812
H413       H    1.2033733152   -0.0504887032    0.5174968233          0.5861
H414       H    1.2484829175   -0.0170750237    0.5343229260           0.587
C415       C    1.2505068513   -0.0138077342    0.5113807068          0.6041
H416       H    1.2053935355   -0.0108488402    0.4666575245         -0.3642
N417       N    1.1561343202   -0.0586043943    0.4477354340         -0.3688
C418       C    1.3067441078   -0.0020203559    0.5025853122         -0.3849
C419       C    1.3385099137   -0.0012614717    0.4948535820         -0.3789
C420       C    1.3627115892    0.0112774363    0.5143289708          0.6123
C421       C    1.3909932372   -0.0000000000    0.5000000000         -0.3815
N422       N    1.3819719341   -0.0294330758    0.4931973535          0.6125
N423       N    1.3508251331   -0.0295356738    0.4880320581         -0.3843
H424       H    1.3479972860   -0.0347682252    0.4671843357         -0.3718
H425       H    1.3842924059   -0.0421013968    0.5106246629          0.5958
H426       H    1.3620710915    0.0345051969    0.5149912587         -0.3797
H427       H    1.3937679753    0.0114258862    0.4799108251         -0.3634
H428       H    1.3607421277    0.0030836797    0.5360201661          0.5943
H429       H    1.3394924151    0.0111484761    0.4752027451         -0.3608
C360       C   -0.0000000000   -0.1090067628    0.0000000000         -0.3844
C361       C   -0.0025921145   -0.1203471201    0.0262218312         -0.3793
C362       C   -0.0027602258   -0.1488802800    0.0309414749         -0.3784
C363       C    0.0000362458   -0.1684333910    0.0098647702         -0.3827
C364       C    0.0026311823   -0.1569025886   -0.0163203082          0.6122
C365       C    0.0025313627   -0.1283427866   -0.0211061761          0.6115
C366       C   -0.0006093689   -0.2017565962    0.0170988286          -0.381
C367       C   -0.0056797273   -0.1530371729    0.0540729796         -0.3735
H368       H   -0.0048159645   -0.1055583161    0.0441388480         -0.3757
H369       H    0.0046140135   -0.1207946541   -0.0428763805          0.6073
H370       H    0.0047082180   -0.1711200249   -0.0344512344          0.6087
O371       O    0.0001359279   -0.2250335809   -0.0049666195         -0.3839
C372       C    0.0224814773   -0.2440125858    0.0361220017          0.6036
C373       C    0.0230776656   -0.2114559925    0.0377010142           0.603
C374       C    0.0078699176   -0.2815067574    0.0004097107          0.6113
H375       H    0.0193637626   -0.2046507522    0.0595993441          0.6083
H376       H    0.0423066930   -0.2533762403    0.0438971037          0.5892
H377       H    0.0048626806   -0.2521338242    0.0490020562         -0.3812
H378       H    0.0437217212   -0.2033733152    0.0307190344          0.5861
H379       H    0.0378268726   -0.2484829175   -0.0062247401           0.587
C380       C    0.0173069651   -0.2505068513    0.0045434537          0.6041
H381       H   -0.0206995951   -0.2053935355    0.0283009677         -0.3642
N382       N   -0.0081166235   -0.1561343202    0.0781036511         -0.3688
C383       C    0.0032786632   -0.3067441078    0.0001266674         -0.3849
C384       C   -0.0034365695   -0.3385099137    0.0040332269         -0.3789
C385       C    0.0050266408   -0.3627115892   -0.0175280592          0.6123
C386       C   -0.0000000000   -0.3909932372    0.0000000000         -0.3815
N387       N    0.0116969362   -0.3819719341    0.0278525337          0.6125
N388       N    0.0075672569   -0.3508251331    0.0309568132         -0.3843
H389       H   -0.0062824002   -0.3479972860    0.0473943959         -0.3718
H390       H    0.0332420198   -0.3842924059    0.0279352679          0.5958
H391       H   -0.0080215343   -0.3620710915   -0.0367559714         -0.3797
H392       H   -0.0229775112   -0.3937679753    0.0024818950         -0.3634
H393       H    0.0274131899   -0.3607421277   -0.0235685907          0.5943
H394       H   -0.0266340894   -0.3394924151    0.0054605539         -0.3608
C325       C   -0.0000000000    0.1090067628    0.0000000000         -0.3844
C326       C    0.0259933527    0.1203471201    0.0043184607         -0.3793
C327       C    0.0305942366    0.1488802800    0.0053839025         -0.3784
C328       C    0.0095157077    0.1684333910    0.0026012133         -0.3827
C329       C   -0.0164428917    0.1569025886   -0.0017049617          0.6122
C330       C   -0.0210380202    0.1283427866   -0.0030463374          0.6115
C331       C    0.0166686551    0.2017565962    0.0038596901          -0.381
C332       C    0.0536888256    0.1530371729    0.0085823322         -0.3735
H333       H    0.0438720168    0.1055583161    0.0068320974         -0.3757
H334       H   -0.0426004793    0.1207946541   -0.0066986780          0.6073
H335       H   -0.0344899083    0.1711200249   -0.0044160044          0.6087
O336       O   -0.0048309843    0.2250335809   -0.0011607654         -0.3839
C337       C    0.0290300418    0.2440125858    0.0311042200          0.6036
C338       C    0.0303995986    0.2114559925    0.0320906455           0.603
C339       C   -0.0016516708    0.2815067574    0.0077055466          0.6113
H340       H    0.0525101249    0.2046507522    0.0342012266          0.6083
H341       H    0.0313801356    0.2533762403    0.0522694850          0.5892
H342       H    0.0460499931    0.2521338242    0.0174426293         -0.3812
H343       H    0.0182876686    0.2033733152    0.0502076603          0.5861
H344       H   -0.0158506889    0.2484829175    0.0349052337           0.587
C345       C   -0.0001151961    0.2505068513    0.0178930361          0.6041
H346       H    0.0327113759    0.2053935355   -0.0126247335         -0.3642
N347       N    0.0775260796    0.1561343202    0.0124806602         -0.3688
C348       C   -0.0007306031    0.3067441078    0.0031987336         -0.3849
C349       C    0.0047883544    0.3385099137   -0.0022690508         -0.3789
C350       C   -0.0182322142    0.3627115892    0.0002938401          0.6123
C351       C   -0.0000000000    0.3909932372    0.0000000000         -0.3815
N352       N    0.0238507668    0.3819719341    0.0185397646          0.6125
N353       N    0.0279224616    0.3508251331    0.0153598112         -0.3843
H354       H    0.0473969574    0.3479972860    0.0062630458         -0.3718
H355       H    0.0183259275    0.3842924059    0.0393645965          0.5958
H356       H   -0.0334037855    0.3620710915   -0.0173070379         -0.3797
H357       H    0.0083738020    0.3937679753   -0.0215407814         -0.3634
H358       H   -0.0298884002    0.3607421277    0.0203382640          0.5943
H359       H    0.0122011290    0.3394924151   -0.0242966010         -0.3608
C290       C   -0.1090067628   -0.0000000000    0.0000000000         -0.3844
C291       C   -0.1203471201    0.0103169839   -0.0242458931         -0.3793
C292       C   -0.1488802800    0.0124357149   -0.0284665894         -0.3784
C293       C   -0.1684333910    0.0047684846   -0.0086357721         -0.3827
C294       C   -0.1569025886   -0.0055283766    0.0155792372          0.6122
C295       C   -0.1283427866   -0.0079139296    0.0197293737          0.6115
C296       C   -0.2017565962    0.0076756864   -0.0152913410          -0.381
C297       C   -0.1530371729    0.0209816634   -0.0501589097         -0.3735
H298       H   -0.1055583161    0.0169693433   -0.0410301450         -0.3757
H299       H   -0.1207946541   -0.0165403014    0.0398257649          0.6073
H300       H   -0.1711200249   -0.0124122299    0.0324806315          0.6087
O301       O   -0.2250335809   -0.0022655501    0.0044218851         -0.3839
C302       C   -0.2440125858    0.0370647175   -0.0208907287          0.6036
C303       C   -0.2114559925    0.0383458640   -0.0219895393           0.603
C304       C   -0.2815067574    0.0071000594    0.0034194476          0.6113
H305       H   -0.2046507522    0.0456028556   -0.0429815853          0.6083
H306       H   -0.2533762403    0.0581883045   -0.0181915695          0.5892
H307       H   -0.2521338242    0.0277943833   -0.0406487323         -0.3812
H308       H   -0.2033733152    0.0531019268   -0.0059525918          0.5861
H309       H   -0.2484829175    0.0301920787    0.0236232526           0.587
C310       C   -0.2505068513    0.0173629131    0.0043247264          0.6041
H311       H   -0.2053935355   -0.0045682073   -0.0347641984         -0.3642
N312       N   -0.1561343202    0.0303826894   -0.0724082321         -0.3688
C313       C   -0.3067441078    0.0029367977    0.0014631803         -0.3849
C314       C   -0.3385099137   -0.0010778855   -0.0051879757         -0.3789
C315       C   -0.3627115892   -0.0040070456    0.0177888606          0.6123
C316       C   -0.3909932372   -0.0000000000    0.0000000000         -0.3815
N317       N   -0.3819719341    0.0236340506   -0.0188152491          0.6125
N318       N   -0.3508251331    0.0215021378   -0.0235211763         -0.3843
H319       H   -0.3479972860    0.0172462070   -0.0445899726         -0.3718
H320       H   -0.3842924059    0.0425726861   -0.0085426856          0.5958
H321       H   -0.3620710915   -0.0246851577    0.0283899531         -0.3797
H322       H   -0.3937679753   -0.0189636936   -0.0132100018         -0.3634
H323       H   -0.3607421277    0.0127295450    0.0338366685          0.5943
H324       H   -0.3394924151   -0.0207409300   -0.0175785719         -0.3608
C255       C    0.1090067628   -0.0000000000    0.0000000000         -0.3844
C256       C    0.1203471201    0.0263413028    0.0006627614         -0.3793
C257       C    0.1488802800    0.0310605709    0.0004844133         -0.3784
C258       C    0.1684333910    0.0098355673   -0.0007593554         -0.3827
C259       C    0.1569025886   -0.0164692886   -0.0014276257          0.6122
C260       C    0.1283427866   -0.0212349599   -0.0009772126          0.6115
C261       C    0.2017565962    0.0170974906   -0.0006458221          -0.381
C262       C    0.1530371729    0.0543438645    0.0017002391         -0.3735
H263       H    0.1055583161    0.0443731409    0.0015670928         -0.3757
H264       H    0.1207946541   -0.0430992652   -0.0014582394          0.6073
H265       H    0.1711200249   -0.0347036972   -0.0021698557          0.6087
O266       O    0.2250335809   -0.0049632197    0.0002285513         -0.3839
C267       C    0.2440125858    0.0343766345   -0.0250691609          0.6036
C268       C    0.2114559925    0.0359076902   -0.0257795056           0.603
C269       C    0.2815067574   -0.0001683521   -0.0078787768          0.6113
H270       H    0.2046507522    0.0580193667   -0.0236810094          0.6083
H271       H    0.2533762403    0.0406773856   -0.0454110370          0.5892
H272       H    0.2521338242    0.0485137006   -0.0084420396         -0.3812
H273       H    0.2033733152    0.0274310393   -0.0458561453          0.5861
H274       H    0.2484829175   -0.0089811575   -0.0372687334           0.587
C275       C    0.2505068513    0.0032624173   -0.0175934830          0.6041
H276       H    0.2053935355    0.0297423421    0.0185690898         -0.3642
N277       N    0.1561343202    0.0784885246    0.0023688384         -0.3688
C278       C    0.3067441078   -0.0001140391   -0.0032791268         -0.3849
C279       C    0.3385099137    0.0042743159    0.0031316374         -0.3789
C280       C    0.3627115892   -0.0178494056   -0.0037280953          0.6123
C281       C    0.3909932372   -0.0000000000    0.0000000000         -0.3815
N282       N    0.3819719341    0.0269200567   -0.0137073884          0.6125
N283       N    0.3508251331    0.0303187383   -0.0098164031         -0.3843
H284       H    0.3479972860    0.0477274358    0.0027909114         -0.3718
H285       H    0.3842924059    0.0254230528   -0.0352005606          0.5958
H286       H    0.3620710915   -0.0360689872    0.0106946066         -0.3797
H287       H    0.3937679753    0.0041597462    0.0227337268         -0.3634
H288       H    0.3607421277   -0.0255148876   -0.0256115591          0.5943
H289       H    0.3394924151    0.0073984612    0.0261620936         -0.3608
C220       C   -0.0000000000    0.0000000000   -0.3909932372         -0.3844
C221       C   -0.0263362886    0.0008386836   -0.3796528799         -0.3793
C222       C   -0.0310377365    0.0012855459   -0.3511197200         -0.3784
C223       C   -0.0097763476    0.0013183448   -0.3315666090         -0.3827
C224       C    0.0165238670    0.0004872371   -0.3430974114          0.6122
C225       C    0.0212561464   -0.0002338917   -0.3716572134          0.6115
C226       C   -0.0170329481    0.0016186262   -0.2982434038          -0.381
C227       C   -0.0543524824    0.0013978825   -0.3469628271         -0.3735
H228       H   -0.0443903622    0.0009628922   -0.3944416839         -0.3757
H229       H    0.0431123544   -0.0009990104   -0.3792053459          0.6073
H230       H    0.0347709491    0.0001896520   -0.3288799751          0.6087
O231       O    0.0049421440   -0.0005108793   -0.2749664191         -0.3839
C232       C   -0.0328929158    0.0269865137   -0.2559874142          0.6036
C233       C   -0.0343810254    0.0277829123   -0.2885440075           0.603
C234       C    0.0006168444    0.0078563967   -0.2184932426          0.6113
H235       H   -0.0565763321    0.0269472774   -0.2953492478          0.6083
H236       H   -0.0380247889    0.0476542486   -0.2466237597          0.5892
H237       H   -0.0479540916    0.0111916163   -0.2478661758         -0.3812
H238       H   -0.0247745948    0.0473441383   -0.2966266848          0.5861
H239       H    0.0110893592    0.0366966728   -0.2515170825           0.587
C240       C   -0.0022550172    0.0177507439   -0.2494931487          0.6041
H241       H   -0.0307517294   -0.0168448553   -0.2946064645         -0.3642
N242       N   -0.0784960270    0.0021056195   -0.3438656798         -0.3688
C243       C    0.0003006291    0.0032673077   -0.1932558922         -0.3849
C244       C   -0.0044457510   -0.0028830934   -0.1614900863         -0.3789
C245       C    0.0180327755    0.0027053621   -0.1372884108          0.6123
C246       C    0.0000000000    0.0000000000   -0.1090067628         -0.3815
N247       N   -0.0260955964    0.0152184689   -0.1180280659          0.6125
N248       N   -0.0297103862    0.0115273854   -0.1491748669         -0.3843
H249       H   -0.0478089187   -0.0000678829   -0.1520027140         -0.3718
H250       H   -0.0233767975    0.0365914801   -0.1157075941          0.5958
H251       H    0.0354012783   -0.0127316905   -0.1379289085         -0.3797
H252       H   -0.0054478787   -0.0224598852   -0.1062320247         -0.3634
H253       H    0.0269322686    0.0241166821   -0.1392578723          0.5943
H254       H   -0.0088766115   -0.0256982127   -0.1605075849         -0.3608
C185       C   -0.0000000000    0.0000000000    0.3909932372         -0.3844
C186       C   -0.0244419724   -0.0098434481    0.3796528799         -0.3793
C187       C   -0.0287030798   -0.0118796855    0.3511197200         -0.3784
C188       C   -0.0087268858   -0.0045996162    0.3315666090         -0.3827
C189       C    0.0156838174    0.0052243137    0.3430974114          0.6122
C190       C    0.0198795679    0.0075286949    0.3716572134          0.6115
C191       C   -0.0154377409   -0.0073768169    0.2982434038          -0.381
C192       C   -0.0505575158   -0.0200021004    0.3469628271         -0.3735
H193       H   -0.0413524381   -0.0161680944    0.3944416839         -0.3757
H194       H    0.0401399410    0.0157625589    0.3792053459          0.6073
H195       H    0.0327159057    0.0117781315    0.3288799751          0.6087
O196       O    0.0044651137    0.0021791156    0.2749664191         -0.3839
C197       C   -0.0216076879   -0.0366513800    0.2559874142          0.6036
C198       C   -0.0227312089   -0.0379109122    0.2885440075           0.603
C199       C    0.0032807041   -0.0071652248    0.2184932426          0.6113
H200       H   -0.0438604329   -0.0447582343    0.2953492478          0.6083
H201       H   -0.0193198944   -0.0578234698    0.2466237597          0.5892
H202       H   -0.0411816452   -0.0269985051    0.2478661758         -0.3812
H203       H   -0.0069843016   -0.0529761032    0.2966266848          0.5861
H204       H    0.0230315460   -0.0306458410    0.2515170825           0.587
C205       C    0.0039861986   -0.0174437448    0.2494931487          0.6041
H206       H   -0.0346687701    0.0052435089    0.2946064645         -0.3642
N207       N   -0.0729854798   -0.0289685973    0.3438656798         -0.3688
C208       C    0.0014057826   -0.0029647011    0.1932558922         -0.3849
C209       C   -0.0051660294    0.0011785880    0.1614900863         -0.3789
C210       C    0.0178634327    0.0036602931    0.1372884108          0.6123
C211       C   -0.0000000000   -0.0000000000    0.1090067628         -0.3815
N212       N   -0.0192713736   -0.0232636220    0.1180280659          0.6125
N213       N   -0.0239349447   -0.0210405818    0.1491748669         -0.3843
H214       H   -0.0449169773   -0.0163756668    0.1520027140         -0.3718
H215       H   -0.0093691110   -0.0423984768    0.1157075941          0.5958
H216       H    0.0288647104    0.0241283016    0.1379289085         -0.3797
H217       H   -0.0128386579    0.0192170416    0.1062320247         -0.3634
H218       H    0.0335826771   -0.0133852623    0.1392578723          0.5943
H219       H   -0.0171718341    0.0210789108    0.1605075849         -0.3608
loop_
_geom_bond_atom_site_label_1
_geom_bond_atom_site_label_2
_geom_bond_distance
_geom_bond_site_symmetry_2
_ccdc_geom_bond_type
Zn1          O5 1.942       .   S
Zn1          O6 1.922       .   S
Zn1         O10 1.922       .   S
Zn1         O17 1.922       .   S
Zn2          O5 1.942       .   S
Zn2          O7 1.922       .   S
Zn2          O9 1.922       .   S
Zn2         O13 1.922       .   S
Zn3          O5 1.942       .   S
Zn3          O8 1.922       .   S
Zn3         O11 1.922       .   S
Zn3         O14 1.922       .   S
Zn4          O5 1.942       .   S
Zn4         O12 1.922       .   S
Zn4         O15 1.922       .   S
Zn4         O16 1.922       .   S
O6          C18 1.304       .   A
O7          C19 1.304       .   A
O8          C20 1.304       .   A
O9          C18 1.304       .   A
O10         C20 1.304       .   A
O11         C19 1.304       .   A
O12         C21 1.304       .   A
O13         C22 1.304       .   A
O14         C21 1.304       .   A
O15         C22 1.304       .   A
O16         C23 1.304       .   A
O17         C23 1.304       .   A
C18        C211 1.540       .   S
C19        C255 1.540       .   S
C20        C360 1.540       .   S
C21        C246 1.540       .   S
C22        C325 1.540       .   S
C23        C290 1.540       .   S
Zn24        O28 1.942       .   S
Zn24        O29 1.922       .   S
Zn24        O33 1.922       .   S
Zn24        O40 1.922       .   S
Zn25        O28 1.942       .   S
Zn25        O30 1.922       .   S
Zn25        O32 1.922       .   S
Zn25        O36 1.922       .   S
Zn26        O28 1.942       .   S
Zn26        O31 1.922       .   S
Zn26        O34 1.922       .   S
Zn26        O37 1.922       .   S
Zn27        O28 1.942       .   S
Zn27        O35 1.922       .   S
Zn27        O38 1.922       .   S
Zn27        O39 1.922       .   S
O29         C41 1.304       .   A
O30         C42 1.304       .   A
O31         C43 1.304       .   A
O32         C41 1.304       .   A
O33         C43 1.304       .   A
O34         C42 1.304       .   A
O35         C44 1.304       .   A
O36         C45 1.304       .   A
O37         C44 1.304       .   A
O38         C45 1.304       .   A
O39         C46 1.304       .   A
O40         C46 1.304       .   A
C41        C526 1.540       .   S
C42        C395 1.540       .   S
C43        C185 1.540   1_655   S
C44        C491 1.540       .   S
C45        C220 1.540   1_656   S
C46        C430 1.540       .   S
Zn47        O51 1.942       .   S
Zn47        O52 1.922       .   S
Zn47        O56 1.922       .   S
Zn47        O63 1.922       .   S
Zn48        O51 1.942       .   S
Zn48        O53 1.922       .   S
Zn48        O55 1.922       .   S
Zn48        O59 1.922       .   S
Zn49        O51 1.942       .   S
Zn49        O54 1.922       .   S
Zn49        O57 1.922       .   S
Zn49        O60 1.922       .   S
Zn50        O51 1.942       .   S
Zn50        O58 1.922       .   S
Zn50        O61 1.922       .   S
Zn50        O62 1.922       .   S
O52         C64 1.304       .   A
O53         C65 1.304       .   A
O54         C66 1.304       .   A
O55         C64 1.304       .   A
O56         C66 1.304       .   A
O57         C65 1.304       .   A
O58         C67 1.304       .   A
O59         C68 1.304       .   A
O60         C67 1.304       .   A
O61         C68 1.304       .   A
O62         C69 1.304       .   A
O63         C69 1.304       .   A
C64        C351 1.540   1_655   S
C65        C535 1.540       .   S
C66        C631 1.540       .   S
C67        C386 1.540   1_665   S
C68        C666 1.540       .   S
C69        C570 1.540       .   S
Zn70        O74 1.942       .   S
Zn70        O75 1.922       .   S
Zn70        O79 1.922       .   S
Zn70        O86 1.922       .   S
Zn71        O74 1.942       .   S
Zn71        O76 1.922       .   S
Zn71        O78 1.922       .   S
Zn71        O82 1.922       .   S
Zn72        O74 1.942       .   S
Zn72        O77 1.922       .   S
Zn72        O80 1.922       .   S
Zn72        O83 1.922       .   S
Zn73        O74 1.942       .   S
Zn73        O81 1.922       .   S
Zn73        O84 1.922       .   S
Zn73        O85 1.922       .   S
O75         C87 1.304       .   A
O76         C88 1.304       .   A
O77         C89 1.304       .   A
O78         C87 1.304       .   A
O79         C89 1.304       .   A
O80         C88 1.304       .   A
O81         C90 1.304       .   A
O82         C91 1.304       .   A
O83         C90 1.304       .   A
O84         C91 1.304       .   A
O85         C92 1.304       .   A
O86         C92 1.304       .   A
C87        C465 1.540       .   S
C88        C561 1.540       .   S
C89        C710 1.540       .   S
C90        C500 1.540   1_565   S
C91        C701 1.540       .   S
C92        C596 1.540   1_556   S
Zn93        O97 1.942       .   S
Zn93        O98 1.922       .   S
Zn93       O102 1.922       .   S
Zn93       O109 1.922       .   S
Zn94        O97 1.942       .   S
Zn94        O99 1.922       .   S
Zn94       O101 1.922       .   S
Zn94       O105 1.922       .   S
Zn95        O97 1.942       .   S
Zn95       O100 1.922       .   S
Zn95       O103 1.922       .   S
Zn95       O106 1.922       .   S
Zn96        O97 1.942       .   S
Zn96       O104 1.922       .   S
Zn96       O107 1.922       .   S
Zn96       O108 1.922       .   S
O98        C110 1.304       .   A
O99        C111 1.304       .   A
O100       C112 1.304       .   A
O101       C110 1.304       .   A
O102       C112 1.304       .   A
O103       C111 1.304       .   A
O104       C113 1.304       .   A
O105       C114 1.304       .   A
O106       C113 1.304       .   A
O107       C114 1.304       .   A
O108       C115 1.304       .   A
O109       C115 1.304       .   A
C110       C281 1.540   1_565   S
C111       C771 1.540       .   S
C112       C876 1.540       .   S
C113       C316 1.540   1_665   S
C114       C841 1.540       .   S
C115       C806 1.540       .   S
Zn116      O120 1.942       .   S
Zn116      O121 1.922       .   S
Zn116      O125 1.922       .   S
Zn116      O132 1.922       .   S
Zn117      O120 1.942       .   S
Zn117      O122 1.922       .   S
Zn117      O124 1.922       .   S
Zn117      O128 1.922       .   S
Zn118      O120 1.942       .   S
Zn118      O123 1.922       .   S
Zn118      O126 1.922       .   S
Zn118      O129 1.922       .   S
Zn119      O120 1.942       .   S
Zn119      O127 1.922       .   S
Zn119      O130 1.922       .   S
Zn119      O131 1.922       .   S
O121       C133 1.304       .   A
O122       C134 1.304       .   A
O123       C135 1.304       .   A
O124       C133 1.304       .   A
O125       C135 1.304       .   A
O126       C134 1.304       .   A
O127       C136 1.304       .   A
O128       C137 1.304       .   A
O129       C136 1.304       .   A
O130       C137 1.304       .   A
O131       C138 1.304       .   A
O132       C138 1.304       .   A
C133       C421 1.540   1_465   S
C134       C745 1.540       .   S
C135       C911 1.540       .   S
C136       C456 1.540   1_565   S
C137       C920 1.540       .   S
C138       C780 1.540   1_556   S
Zn139      O143 1.942       .   S
Zn139      O144 1.922       .   S
Zn139      O148 1.922       .   S
Zn139      O155 1.922       .   S
Zn140      O143 1.942       .   S
Zn140      O145 1.922       .   S
Zn140      O147 1.922       .   S
Zn140      O151 1.922       .   S
Zn141      O143 1.942       .   S
Zn141      O146 1.922       .   S
Zn141      O149 1.922       .   S
Zn141      O152 1.922       .   S
Zn142      O143 1.942       .   S
Zn142      O150 1.922       .   S
Zn142      O153 1.922       .   S
Zn142      O154 1.922       .   S
O144       C156 1.304       .   A
O145       C157 1.304       .   A
O146       C158 1.304       .   A
O147       C156 1.304       .   A
O148       C158 1.304       .   A
O149       C157 1.304       .   A
O150       C159 1.304       .   A
O151       C160 1.304       .   A
O152       C159 1.304       .   A
O153       C160 1.304       .   A
O154       C161 1.304       .   A
O155       C161 1.304       .   A
C156       C605 1.540   1_455   S
C157       C815 1.540   1_545   S
C158      C1016 1.540       .   S
C159       C640 1.540       .   S
C160       C955 1.540       .   S
C161       C850 1.540       .   S
Zn162      O166 1.942       .   S
Zn162      O167 1.922       .   S
Zn162      O171 1.922       .   S
Zn162      O178 1.922       .   S
Zn163      O166 1.942       .   S
Zn163      O168 1.922       .   S
Zn163      O170 1.922       .   S
Zn163      O174 1.922       .   S
Zn164      O166 1.942       .   S
Zn164      O169 1.922       .   S
Zn164      O172 1.922       .   S
Zn164      O175 1.922       .   S
Zn165      O166 1.942       .   S
Zn165      O173 1.922       .   S
Zn165      O176 1.922       .   S
Zn165      O177 1.922       .   S
O167       C179 1.304       .   A
O168       C180 1.304       .   A
O169       C181 1.304       .   A
O170       C179 1.304       .   A
O171       C181 1.304       .   A
O172       C180 1.304       .   A
O173       C182 1.304       .   A
O174       C183 1.304       .   A
O175       C182 1.304       .   A
O176       C183 1.304       .   A
O177       C184 1.304       .   A
O178       C184 1.304       .   A
C179       C675 1.540   1_455   S
C180       C885 1.540   1_545   S
C181       C981 1.540       .   S
C182       C736 1.540       .   S
C183       C990 1.540   1_556   S
C184       C946 1.540       .   S
C990       C991 0.022       .   A
C990       C995 0.023       .   A
C991       C992 0.023       .   A
C991       H998 0.018       .   A
C992       C993 0.023       .   A
C992       C997 0.019       .   A
C993       C994 0.023       .   A
C993       C996 0.027       .   A
C994       C995 0.023       .   A
C994      H1000 0.018       .   A
C995       H999 0.018       .   A
C996      O1001 0.025       .   A
C996      C1003 0.026       .   A
C996      H1011 0.018       .   A
C997      N1012 0.019       .   A
O1001     C1010 0.025       .   A
C1002     C1003 0.026       .   A
C1002     H1006 0.018       .   A
C1002     H1007 0.018       .   A
C1002     C1010 0.026       .   A
C1003     H1005 0.018       .   A
C1003     H1008 0.018       .   A
C1004     C1010 0.026       .   A
C1004     C1013 0.020       .   A
H1009     C1010 0.018       .   A
C1013     C1014 0.026       .   A
C1014     C1015 0.026       .   A
C1014     N1018 0.025       .   A
C1014     H1024 0.018       .   A
C1015     C1016 0.026       .   A
C1015     H1021 0.018       .   A
C1015     H1023 0.018       .   A
C1016     N1017 0.025       .   A
C1016     H1022 0.018       .   A
N1017     N1018 0.025       .   A
N1017     H1020 0.017       .   A
N1018     H1019 0.017       .   A
C955       C956 0.022       .   A
C955       C960 0.023       .   A
C956       C957 0.023       .   A
C956       H963 0.018       .   A
C957       C958 0.023       .   A
C957       C962 0.019       .   A
C958       C959 0.023       .   A
C958       C961 0.027       .   A
C959       C960 0.023       .   A
C959       H965 0.018       .   A
C960       H964 0.018       .   A
C961       O966 0.025       .   A
C961       C968 0.026       .   A
C961       H976 0.018       .   A
C962       N977 0.019       .   A
O966       C975 0.025       .   A
C967       C968 0.026       .   A
C967       H971 0.018       .   A
C967       H972 0.018       .   A
C967       C975 0.026       .   A
C968       H970 0.018       .   A
C968       H973 0.018       .   A
C969       C975 0.026       .   A
C969       C978 0.020       .   A
H974       C975 0.018       .   A
C978       C979 0.026       .   A
C979       C980 0.026       .   A
C979       N983 0.025       .   A
C979       H989 0.018       .   A
C980       C981 0.026       .   A
C980       H986 0.018       .   A
C980       H988 0.018       .   A
C981       N982 0.025       .   A
C981       H987 0.018       .   A
N982       N983 0.025       .   A
N982       H985 0.017       .   A
N983       H984 0.017       .   A
C920       C921 0.022       .   A
C920       C925 0.023       .   A
C921       C922 0.023       .   A
C921       H928 0.018       .   A
C922       C923 0.023       .   A
C922       C927 0.019       .   A
C923       C924 0.023       .   A
C923       C926 0.027       .   A
C924       C925 0.023       .   A
C924       H930 0.018       .   A
C925       H929 0.018       .   A
C926       O931 0.025       .   A
C926       C933 0.026       .   A
C926       H941 0.018       .   A
C927       N942 0.019       .   A
O931       C940 0.025       .   A
C932       C933 0.026       .   A
C932       H936 0.018       .   A
C932       H937 0.018       .   A
C932       C940 0.026       .   A
C933       H935 0.018       .   A
C933       H938 0.018       .   A
C934       C940 0.026       .   A
C934       C943 0.020       .   A
H939       C940 0.018       .   A
C943       C944 0.026       .   A
C944       C945 0.026       .   A
C944       N948 0.025       .   A
C944       H954 0.018       .   A
C945       C946 0.026       .   A
C945       H951 0.018       .   A
C945       H953 0.018       .   A
C946       N947 0.025       .   A
C946       H952 0.018       .   A
N947       N948 0.025       .   A
N947       H950 0.017       .   A
N948       H949 0.017       .   A
C885       C886 0.022       .   A
C885       C890 0.023       .   A
C886       C887 0.023       .   A
C886       H893 0.018       .   A
C887       C888 0.023       .   A
C887       C892 0.019       .   A
C888       C889 0.023       .   A
C888       C891 0.027       .   A
C889       C890 0.023       .   A
C889       H895 0.018       .   A
C890       H894 0.018       .   A
C891       O896 0.025       .   A
C891       C898 0.026       .   A
C891       H906 0.018       .   A
C892       N907 0.019       .   A
O896       C905 0.025       .   A
C897       C898 0.026       .   A
C897       H901 0.018       .   A
C897       H902 0.018       .   A
C897       C905 0.026       .   A
C898       H900 0.018       .   A
C898       H903 0.018       .   A
C899       C905 0.026       .   A
C899       C908 0.020       .   A
H904       C905 0.018       .   A
C908       C909 0.026       .   A
C909       C910 0.026       .   A
C909       N913 0.025       .   A
C909       H919 0.018       .   A
C910       C911 0.026       .   A
C910       H916 0.018       .   A
C910       H918 0.018       .   A
C911       N912 0.025       .   A
C911       H917 0.018       .   A
N912       N913 0.025       .   A
N912       H915 0.017       .   A
N913       H914 0.017       .   A
C850       C851 0.022       .   A
C850       C855 0.023       .   A
C851       C852 0.023       .   A
C851       H858 0.018       .   A
C852       C853 0.023       .   A
C852       C857 0.019       .   A
C853       C854 0.023       .   A
C853       C856 0.027       .   A
C854       C855 0.023       .   A
C854       H860 0.018       .   A
C855       H859 0.018       .   A
C856       O861 0.025       .   A
C856       C863 0.026       .   A
C856       H871 0.018       .   A
C857       N872 0.019       .   A
O861       C870 0.025       .   A
C862       C863 0.026       .   A
C862       H866 0.018       .   A
C862       H867 0.018       .   A
C862       C870 0.026       .   A
C863       H865 0.018       .   A
C863       H868 0.018       .   A
C864       C870 0.026       .   A
C864       C873 0.020       .   A
H869       C870 0.018       .   A
C873       C874 0.026       .   A
C874       C875 0.026       .   A
C874       N878 0.025       .   A
C874       H884 0.018       .   A
C875       C876 0.026       .   A
C875       H881 0.018       .   A
C875       H883 0.018       .   A
C876       N877 0.025       .   A
C876       H882 0.018       .   A
N877       N878 0.025       .   A
N877       H880 0.017       .   A
N878       H879 0.017       .   A
C815       C816 0.022       .   A
C815       C820 0.023       .   A
C816       C817 0.023       .   A
C816       H823 0.018       .   A
C817       C818 0.023       .   A
C817       C822 0.019       .   A
C818       C819 0.023       .   A
C818       C821 0.027       .   A
C819       C820 0.023       .   A
C819       H825 0.018       .   A
C820       H824 0.018       .   A
C821       O826 0.025       .   A
C821       C828 0.026       .   A
C821       H836 0.018       .   A
C822       N837 0.019       .   A
O826       C835 0.025       .   A
C827       C828 0.026       .   A
C827       H831 0.018       .   A
C827       H832 0.018       .   A
C827       C835 0.026       .   A
C828       H830 0.018       .   A
C828       H833 0.018       .   A
C829       C835 0.026       .   A
C829       C838 0.020       .   A
H834       C835 0.018       .   A
C838       C839 0.026       .   A
C839       C840 0.026       .   A
C839       N843 0.025       .   A
C839       H849 0.018       .   A
C840       C841 0.026       .   A
C840       H846 0.018       .   A
C840       H848 0.018       .   A
C841       N842 0.025       .   A
C841       H847 0.018       .   A
N842       N843 0.025       .   A
N842       H845 0.017       .   A
N843       H844 0.017       .   A
C780       C781 0.022       .   A
C780       C785 0.023       .   A
C781       C782 0.023       .   A
C781       H788 0.018       .   A
C782       C783 0.023       .   A
C782       C787 0.019       .   A
C783       C784 0.023       .   A
C783       C786 0.027       .   A
C784       C785 0.023       .   A
C784       H790 0.018       .   A
C785       H789 0.018       .   A
C786       O791 0.025       .   A
C786       C793 0.026       .   A
C786       H801 0.018       .   A
C787       N802 0.019       .   A
O791       C800 0.025       .   A
C792       C793 0.026       .   A
C792       H796 0.018       .   A
C792       H797 0.018       .   A
C792       C800 0.026       .   A
C793       H795 0.018       .   A
C793       H798 0.018       .   A
C794       C800 0.026       .   A
C794       C803 0.020       .   A
H799       C800 0.018       .   A
C803       C804 0.026       .   A
C804       C805 0.026       .   A
C804       N808 0.025       .   A
C804       H814 0.018       .   A
C805       C806 0.026       .   A
C805       H811 0.018       .   A
C805       H813 0.018       .   A
C806       N807 0.025       .   A
C806       H812 0.018       .   A
N807       N808 0.025       .   A
N807       H810 0.017       .   A
N808       H809 0.017       .   A
C745       C746 0.022       .   A
C745       C750 0.023       .   A
C746       C747 0.023       .   A
C746       H753 0.018       .   A
C747       C748 0.023       .   A
C747       C752 0.019       .   A
C748       C749 0.023       .   A
C748       C751 0.027       .   A
C749       C750 0.023       .   A
C749       H755 0.018       .   A
C750       H754 0.018       .   A
C751       O756 0.025       .   A
C751       C758 0.026       .   A
C751       H766 0.018       .   A
C752       N767 0.019       .   A
O756       C765 0.025       .   A
C757       C758 0.026       .   A
C757       H761 0.018       .   A
C757       H762 0.018       .   A
C757       C765 0.026       .   A
C758       H760 0.018       .   A
C758       H763 0.018       .   A
C759       C765 0.026       .   A
C759       C768 0.020       .   A
H764       C765 0.018       .   A
C768       C769 0.026       .   A
C769       C770 0.026       .   A
C769       N773 0.025       .   A
C769       H779 0.018       .   A
C770       C771 0.026       .   A
C770       H776 0.018       .   A
C770       H778 0.018       .   A
C771       N772 0.025       .   A
C771       H777 0.018       .   A
N772       N773 0.025       .   A
N772       H775 0.017       .   A
N773       H774 0.017       .   A
C710       C711 0.022       .   A
C710       C715 0.023       .   A
C711       C712 0.023       .   A
C711       H718 0.018       .   A
C712       C713 0.023       .   A
C712       C717 0.019       .   A
C713       C714 0.023       .   A
C713       C716 0.027       .   A
C714       C715 0.023       .   A
C714       H720 0.018       .   A
C715       H719 0.018       .   A
C716       O721 0.025       .   A
C716       C723 0.026       .   A
C716       H731 0.018       .   A
C717       N732 0.019       .   A
O721       C730 0.025       .   A
C722       C723 0.026       .   A
C722       H726 0.018       .   A
C722       H727 0.018       .   A
C722       C730 0.026       .   A
C723       H725 0.018       .   A
C723       H728 0.018       .   A
C724       C730 0.026       .   A
C724       C733 0.020       .   A
H729       C730 0.018       .   A
C733       C734 0.026       .   A
C734       C735 0.026       .   A
C734       N738 0.025       .   A
C734       H744 0.018       .   A
C735       C736 0.026       .   A
C735       H741 0.018       .   A
C735       H743 0.018       .   A
C736       N737 0.025       .   A
C736       H742 0.018       .   A
N737       N738 0.025       .   A
N737       H740 0.017       .   A
N738       H739 0.017       .   A
C675       C676 0.022       .   A
C675       C680 0.023       .   A
C676       C677 0.023       .   A
C676       H683 0.018       .   A
C677       C678 0.023       .   A
C677       C682 0.019       .   A
C678       C679 0.023       .   A
C678       C681 0.027       .   A
C679       C680 0.023       .   A
C679       H685 0.018       .   A
C680       H684 0.018       .   A
C681       O686 0.025       .   A
C681       C688 0.026       .   A
C681       H696 0.018       .   A
C682       N697 0.019       .   A
O686       C695 0.025       .   A
C687       C688 0.026       .   A
C687       H691 0.018       .   A
C687       H692 0.018       .   A
C687       C695 0.026       .   A
C688       H690 0.018       .   A
C688       H693 0.018       .   A
C689       C695 0.026       .   A
C689       C698 0.020       .   A
H694       C695 0.018       .   A
C698       C699 0.026       .   A
C699       C700 0.026       .   A
C699       N703 0.025       .   A
C699       H709 0.018       .   A
C700       C701 0.026       .   A
C700       H706 0.018       .   A
C700       H708 0.018       .   A
C701       N702 0.025       .   A
C701       H707 0.018       .   A
N702       N703 0.025       .   A
N702       H705 0.017       .   A
N703       H704 0.017       .   A
C640       C641 0.022       .   A
C640       C645 0.023       .   A
C641       C642 0.023       .   A
C641       H648 0.018       .   A
C642       C643 0.023       .   A
C642       C647 0.019       .   A
C643       C644 0.023       .   A
C643       C646 0.027       .   A
C644       C645 0.023       .   A
C644       H650 0.018       .   A
C645       H649 0.018       .   A
C646       O651 0.025       .   A
C646       C653 0.026       .   A
C646       H661 0.018       .   A
C647       N662 0.019       .   A
O651       C660 0.025       .   A
C652       C653 0.026       .   A
C652       H656 0.018       .   A
C652       H657 0.018       .   A
C652       C660 0.026       .   A
C653       H655 0.018       .   A
C653       H658 0.018       .   A
C654       C660 0.026       .   A
C654       C663 0.020       .   A
H659       C660 0.018       .   A
C663       C664 0.026       .   A
C664       C665 0.026       .   A
C664       N668 0.025       .   A
C664       H674 0.018       .   A
C665       C666 0.026       .   A
C665       H671 0.018       .   A
C665       H673 0.018       .   A
C666       N667 0.025       .   A
C666       H672 0.018       .   A
N667       N668 0.025       .   A
N667       H670 0.017       .   A
N668       H669 0.017       .   A
C605       C606 0.022       .   A
C605       C610 0.023       .   A
C606       C607 0.023       .   A
C606       H613 0.018       .   A
C607       C608 0.023       .   A
C607       C612 0.019       .   A
C608       C609 0.023       .   A
C608       C611 0.027       .   A
C609       C610 0.023       .   A
C609       H615 0.018       .   A
C610       H614 0.018       .   A
C611       O616 0.025       .   A
C611       C618 0.026       .   A
C611       H626 0.018       .   A
C612       N627 0.019       .   A
O616       C625 0.025       .   A
C617       C618 0.026       .   A
C617       H621 0.018       .   A
C617       H622 0.018       .   A
C617       C625 0.026       .   A
C618       H620 0.018       .   A
C618       H623 0.018       .   A
C619       C625 0.026       .   A
C619       C628 0.020       .   A
H624       C625 0.018       .   A
C628       C629 0.026       .   A
C629       C630 0.026       .   A
C629       N633 0.025       .   A
C629       H639 0.018       .   A
C630       C631 0.026       .   A
C630       H636 0.018       .   A
C630       H638 0.018       .   A
C631       N632 0.025       .   A
C631       H637 0.018       .   A
N632       N633 0.025       .   A
N632       H635 0.017       .   A
N633       H634 0.017       .   A
C570       C571 0.022       .   A
C570       C575 0.023       .   A
C571       C572 0.023       .   A
C571       H578 0.018       .   A
C572       C573 0.023       .   A
C572       C577 0.019       .   A
C573       C574 0.023       .   A
C573       C576 0.027       .   A
C574       C575 0.023       .   A
C574       H580 0.018       .   A
C575       H579 0.018       .   A
C576       O581 0.025       .   A
C576       C583 0.026       .   A
C576       H591 0.018       .   A
C577       N592 0.019       .   A
O581       C590 0.025       .   A
C582       C583 0.026       .   A
C582       H586 0.018       .   A
C582       H587 0.018       .   A
C582       C590 0.026       .   A
C583       H585 0.018       .   A
C583       H588 0.018       .   A
C584       C590 0.026       .   A
C584       C593 0.020       .   A
H589       C590 0.018       .   A
C593       C594 0.026       .   A
C594       C595 0.026       .   A
C594       N598 0.025       .   A
C594       H604 0.018       .   A
C595       C596 0.026       .   A
C595       H601 0.018       .   A
C595       H603 0.018       .   A
C596       N597 0.025       .   A
C596       H602 0.018       .   A
N597       N598 0.025       .   A
N597       H600 0.017       .   A
N598       H599 0.017       .   A
C535       C536 0.022       .   A
C535       C540 0.023       .   A
C536       C537 0.023       .   A
C536       H543 0.018       .   A
C537       C538 0.023       .   A
C537       C542 0.019       .   A
C538       C539 0.023       .   A
C538       C541 0.027       .   A
C539       C540 0.023       .   A
C539       H545 0.018       .   A
C540       H544 0.018       .   A
C541       O546 0.025       .   A
C541       C548 0.026       .   A
C541       H556 0.018       .   A
C542       N557 0.019       .   A
O546       C555 0.025       .   A
C547       C548 0.026       .   A
C547       H551 0.018       .   A
C547       H552 0.018       .   A
C547       C555 0.026       .   A
C548       H550 0.018       .   A
C548       H553 0.018       .   A
C549       C555 0.026       .   A
C549       C558 0.020       .   A
H554       C555 0.018       .   A
C558       C559 0.026       .   A
C559       C560 0.026       .   A
C559       N563 0.025       .   A
C559       H569 0.018       .   A
C560       C561 0.026       .   A
C560       H566 0.018       .   A
C560       H568 0.018       .   A
C561       N562 0.025       .   A
C561       H567 0.018       .   A
N562       N563 0.025       .   A
N562       H565 0.017       .   A
N563       H564 0.017       .   A
C500       C501 0.022       .   A
C500       C505 0.023       .   A
C501       C502 0.023       .   A
C501       H508 0.018       .   A
C502       C503 0.023       .   A
C502       C507 0.019       .   A
C503       C504 0.023       .   A
C503       C506 0.027       .   A
C504       C505 0.023       .   A
C504       H510 0.018       .   A
C505       H509 0.018       .   A
C506       O511 0.025       .   A
C506       C513 0.026       .   A
C506       H521 0.018       .   A
C507       N522 0.019       .   A
O511       C520 0.025       .   A
C512       C513 0.026       .   A
C512       H516 0.018       .   A
C512       H517 0.018       .   A
C512       C520 0.026       .   A
C513       H515 0.018       .   A
C513       H518 0.018       .   A
C514       C520 0.026       .   A
C514       C523 0.020       .   A
H519       C520 0.018       .   A
C523       C524 0.026       .   A
C524       C525 0.026       .   A
C524       N528 0.025       .   A
C524       H534 0.018       .   A
C525       C526 0.026       .   A
C525       H531 0.018       .   A
C525       H533 0.018       .   A
C526       N527 0.025       .   A
C526       H532 0.018       .   A
N527       N528 0.025       .   A
N527       H530 0.017       .   A
N528       H529 0.017       .   A
C465       C466 0.022       .   A
C465       C470 0.023       .   A
C466       C467 0.023       .   A
C466       H473 0.018       .   A
C467       C468 0.023       .   A
C467       C472 0.019       .   A
C468       C469 0.023       .   A
C468       C471 0.027       .   A
C469       C470 0.023       .   A
C469       H475 0.018       .   A
C470       H474 0.018       .   A
C471       O476 0.025       .   A
C471       C478 0.026       .   A
C471       H486 0.018       .   A
C472       N487 0.019       .   A
O476       C485 0.025       .   A
C477       C478 0.026       .   A
C477       H481 0.018       .   A
C477       H482 0.018       .   A
C477       C485 0.026       .   A
C478       H480 0.018       .   A
C478       H483 0.018       .   A
C479       C485 0.026       .   A
C479       C488 0.020       .   A
H484       C485 0.018       .   A
C488       C489 0.026       .   A
C489       C490 0.026       .   A
C489       N493 0.025       .   A
C489       H499 0.018       .   A
C490       C491 0.026       .   A
C490       H496 0.018       .   A
C490       H498 0.018       .   A
C491       N492 0.025       .   A
C491       H497 0.018       .   A
N492       N493 0.025       .   A
N492       H495 0.017       .   A
N493       H494 0.017       .   A
C430       C431 0.022       .   A
C430       C435 0.023       .   A
C431       C432 0.023       .   A
C431       H438 0.018       .   A
C432       C433 0.023       .   A
C432       C437 0.019       .   A
C433       C434 0.023       .   A
C433       C436 0.027       .   A
C434       C435 0.023       .   A
C434       H440 0.018       .   A
C435       H439 0.018       .   A
C436       O441 0.025       .   A
C436       C443 0.026       .   A
C436       H451 0.018       .   A
C437       N452 0.019       .   A
O441       C450 0.025       .   A
C442       C443 0.026       .   A
C442       H446 0.018       .   A
C442       H447 0.018       .   A
C442       C450 0.026       .   A
C443       H445 0.018       .   A
C443       H448 0.018       .   A
C444       C450 0.026       .   A
C444       C453 0.020       .   A
H449       C450 0.018       .   A
C453       C454 0.026       .   A
C454       C455 0.026       .   A
C454       N458 0.025       .   A
C454       H464 0.018       .   A
C455       C456 0.026       .   A
C455       H461 0.018       .   A
C455       H463 0.018       .   A
C456       N457 0.025       .   A
C456       H462 0.018       .   A
N457       N458 0.025       .   A
N457       H460 0.017       .   A
N458       H459 0.017       .   A
C395       C396 0.022       .   A
C395       C400 0.023       .   A
C396       C397 0.023       .   A
C396       H403 0.018       .   A
C397       C398 0.023       .   A
C397       C402 0.019       .   A
C398       C399 0.023       .   A
C398       C401 0.027       .   A
C399       C400 0.023       .   A
C399       H405 0.018       .   A
C400       H404 0.018       .   A
C401       O406 0.025       .   A
C401       C408 0.026       .   A
C401       H416 0.018       .   A
C402       N417 0.019       .   A
O406       C415 0.025       .   A
C407       C408 0.026       .   A
C407       H411 0.018       .   A
C407       H412 0.018       .   A
C407       C415 0.026       .   A
C408       H410 0.018       .   A
C408       H413 0.018       .   A
C409       C415 0.026       .   A
C409       C418 0.020       .   A
H414       C415 0.018       .   A
C418       C419 0.026       .   A
C419       C420 0.026       .   A
C419       N423 0.025       .   A
C419       H429 0.018       .   A
C420       C421 0.026       .   A
C420       H426 0.018       .   A
C420       H428 0.018       .   A
C421       N422 0.025       .   A
C421       H427 0.018       .   A
N422       N423 0.025       .   A
N422       H425 0.017       .   A
N423       H424 0.017       .   A
C360       C361 0.022       .   A
C360       C365 0.023       .   A
C361       C362 0.023       .   A
C361       H368 0.018       .   A
C362       C363 0.023       .   A
C362       C367 0.019       .   A
C363       C364 0.023       .   A
C363       C366 0.027       .   A
C364       C365 0.023       .   A
C364       H370 0.018       .   A
C365       H369 0.018       .   A
C366       O371 0.025       .   A
C366       C373 0.026       .   A
C366       H381 0.018       .   A
C367       N382 0.019       .   A
O371       C380 0.025       .   A
C372       C373 0.026       .   A
C372       H376 0.018       .   A
C372       H377 0.018       .   A
C372       C380 0.026       .   A
C373       H375 0.018       .   A
C373       H378 0.018       .   A
C374       C380 0.026       .   A
C374       C383 0.020       .   A
H379       C380 0.018       .   A
C383       C384 0.026       .   A
C384       C385 0.026       .   A
C384       N388 0.025       .   A
C384       H394 0.018       .   A
C385       C386 0.026       .   A
C385       H391 0.018       .   A
C385       H393 0.018       .   A
C386       N387 0.025       .   A
C386       H392 0.018       .   A
N387       N388 0.025       .   A
N387       H390 0.017       .   A
N388       H389 0.017       .   A
C325       C326 0.022       .   A
C325       C330 0.023       .   A
C326       C327 0.023       .   A
C326       H333 0.018       .   A
C327       C328 0.023       .   A
C327       C332 0.019       .   A
C328       C329 0.023       .   A
C328       C331 0.027       .   A
C329       C330 0.023       .   A
C329       H335 0.018       .   A
C330       H334 0.018       .   A
C331       O336 0.025       .   A
C331       C338 0.026       .   A
C331       H346 0.018       .   A
C332       N347 0.019       .   A
O336       C345 0.025       .   A
C337       C338 0.026       .   A
C337       H341 0.018       .   A
C337       H342 0.018       .   A
C337       C345 0.026       .   A
C338       H340 0.018       .   A
C338       H343 0.018       .   A
C339       C345 0.026       .   A
C339       C348 0.020       .   A
H344       C345 0.018       .   A
C348       C349 0.026       .   A
C349       C350 0.026       .   A
C349       N353 0.025       .   A
C349       H359 0.018       .   A
C350       C351 0.026       .   A
C350       H356 0.018       .   A
C350       H358 0.018       .   A
C351       N352 0.025       .   A
C351       H357 0.018       .   A
N352       N353 0.025       .   A
N352       H355 0.017       .   A
N353       H354 0.017       .   A
C290       C291 0.022       .   A
C290       C295 0.023       .   A
C291       C292 0.023       .   A
C291       H298 0.018       .   A
C292       C293 0.023       .   A
C292       C297 0.019       .   A
C293       C294 0.023       .   A
C293       C296 0.027       .   A
C294       C295 0.023       .   A
C294       H300 0.018       .   A
C295       H299 0.018       .   A
C296       O301 0.025       .   A
C296       C303 0.026       .   A
C296       H311 0.018       .   A
C297       N312 0.019       .   A
O301       C310 0.025       .   A
C302       C303 0.026       .   A
C302       H306 0.018       .   A
C302       H307 0.018       .   A
C302       C310 0.026       .   A
C303       H305 0.018       .   A
C303       H308 0.018       .   A
C304       C310 0.026       .   A
C304       C313 0.020       .   A
H309       C310 0.018       .   A
C313       C314 0.026       .   A
C314       C315 0.026       .   A
C314       N318 0.025       .   A
C314       H324 0.018       .   A
C315       C316 0.026       .   A
C315       H321 0.018       .   A
C315       H323 0.018       .   A
C316       N317 0.025       .   A
C316       H322 0.018       .   A
N317       N318 0.025       .   A
N317       H320 0.017       .   A
N318       H319 0.017       .   A
C255       C256 0.022       .   A
C255       C260 0.023       .   A
C256       C257 0.023       .   A
C256       H263 0.018       .   A
C257       C258 0.023       .   A
C257       C262 0.019       .   A
C258       C259 0.023       .   A
C258       C261 0.027       .   A
C259       C260 0.023       .   A
C259       H265 0.018       .   A
C260       H264 0.018       .   A
C261       O266 0.025       .   A
C261       C268 0.026       .   A
C261       H276 0.018       .   A
C262       N277 0.019       .   A
O266       C275 0.025       .   A
C267       C268 0.026       .   A
C267       H271 0.018       .   A
C267       H272 0.018       .   A
C267       C275 0.026       .   A
C268       H270 0.018       .   A
C268       H273 0.018       .   A
C269       C275 0.026       .   A
C269       C278 0.020       .   A
H274       C275 0.018       .   A
C278       C279 0.026       .   A
C279       C280 0.026       .   A
C279       N283 0.025       .   A
C279       H289 0.018       .   A
C280       C281 0.026       .   A
C280       H286 0.018       .   A
C280       H288 0.018       .   A
C281       N282 0.025       .   A
C281       H287 0.018       .   A
N282       N283 0.025       .   A
N282       H285 0.017       .   A
N283       H284 0.017       .   A
C220       C221 0.022       .   A
C220       C225 0.023       .   A
C221       C222 0.023       .   A
C221       H228 0.018       .   A
C222       C223 0.023       .   A
C222       C227 0.019       .   A
C223       C224 0.023       .   A
C223       C226 0.027       .   A
C224       C225 0.023       .   A
C224       H230 0.018       .   A
C225       H229 0.018       .   A
C226       O231 0.025       .   A
C226       C233 0.026       .   A
C226       H241 0.018       .   A
C227       N242 0.019       .   A
O231       C240 0.025       .   A
C232       C233 0.026       .   A
C232       H236 0.018       .   A
C232       H237 0.018       .   A
C232       C240 0.026       .   A
C233       H235 0.018       .   A
C233       H238 0.018       .   A
C234       C240 0.026       .   A
C234       C243 0.020       .   A
H239       C240 0.018       .   A
C243       C244 0.026       .   A
C244       C245 0.026       .   A
C244       N248 0.025       .   A
C244       H254 0.018       .   A
C245       C246 0.026       .   A
C245       H251 0.018       .   A
C245       H253 0.018       .   A
C246       N247 0.025       .   A
C246       H252 0.018       .   A
N247       N248 0.025       .   A
N247       H250 0.017       .   A
N248       H249 0.017       .   A
C185       C186 0.022       .   A
C185       C190 0.023       .   A
C186       C187 0.023       .   A
C186       H193 0.018       .   A
C187       C188 0.023       .   A
C187       C192 0.019       .   A
C188       C189 0.023       .   A
C188       C191 0.027       .   A
C189       C190 0.023       .   A
C189       H195 0.018       .   A
C190       H194 0.018       .   A
C191       O196 0.025       .   A
C191       C198 0.026       .   A
C191       H206 0.018       .   A
C192       N207 0.019       .   A
O196       C205 0.025       .   A
C197       C198 0.026       .   A
C197       H201 0.018       .   A
C197       H202 0.018       .   A
C197       C205 0.026       .   A
C198       H200 0.018       .   A
C198       H203 0.018       .   A
C199       C205 0.026       .   A
C199       C208 0.020       .   A
H204       C205 0.018       .   A
C208       C209 0.026       .   A
C209       C210 0.026       .   A
C209       N213 0.025       .   A
C209       H219 0.018       .   A
C210       C211 0.026       .   A
C210       H216 0.018       .   A
C210       H218 0.018       .   A
C211       N212 0.025       .   A
C211       H217 0.018       .   A
N212       N213 0.025       .   A
N212       H215 0.017       .   A
N213       H214 0.017       .   A
