data_pcu_v1-6c_Zn_1_Ch_1-41_fer_tobacco
_audit_creation_date              2021-04-07
_audit_creation_method            'tobacco_3.0'
_symmetry_space_group_name_H-M    'P1'
_symmetry_Int_Tables_number       1
_symmetry_cell_setting            triclinic
loop_
_symmetry_equiv_pos_as_xyz
  x,y,z
_cell_length_a                    34.87551114759309
_cell_length_b                    34.87551114759309
_cell_length_c                    34.87551114759309
_cell_angle_alpha                 90.0
_cell_angle_beta                  90.0
_cell_angle_gamma                 90.0
loop_
_atom_site_label
_atom_site_type_symbol
_atom_site_fract_x
_atom_site_fract_y
_atom_site_fract_z
_atom_site_charge
Zn1       Zn   -0.0321486328   -0.0321486328    0.0321486328          1.4972
Zn2       Zn    0.0321486328    0.0321486328    0.0321486328          1.4936
Zn3       Zn    0.0321486328   -0.0321486328   -0.0321486328          1.4911
Zn4       Zn   -0.0321486328    0.0321486328   -0.0321486328          1.4948
O5         O    0.0000000000    0.0000000000    0.0000000000         -2.3067
O6         O   -0.0236268939   -0.0236268939    0.0859227550          -1.213
O7         O    0.0859227550    0.0236268939    0.0236268939         -1.2112
O8         O    0.0236268939   -0.0859227550   -0.0236268939         -1.2064
O9         O    0.0236268939    0.0236268939    0.0859227550         -1.2132
O10        O   -0.0236268939   -0.0859227550    0.0236268939         -1.2092
O11        O    0.0859227550   -0.0236268939   -0.0236268939          -1.215
O12        O   -0.0236268939    0.0236268939   -0.0859227550         -1.2089
O13        O    0.0236268939    0.0859227550    0.0236268939         -1.2165
O14        O    0.0236268939   -0.0236268939   -0.0859227550         -1.2104
O15        O   -0.0236268939    0.0859227550   -0.0236268939          -1.215
O16        O   -0.0859227550    0.0236268939   -0.0236268939         -1.2141
O17        O   -0.0859227550   -0.0236268939    0.0236268939          -1.212
C18        C   -0.0000000000   -0.0000000000    0.1027311108          0.3059
C19        C    0.1027311108   -0.0000000000   -0.0000000000          0.3108
C20        C   -0.0000000000   -0.1027311108    0.0000000000          0.3004
C21        C    0.0000000000    0.0000000000   -0.1027311108          0.3041
C22        C    0.0000000000    0.1027311108   -0.0000000000          0.3155
C23        C   -0.1027311108    0.0000000000    0.0000000000           0.306
Zn24      Zn    1.0321486328    0.0321486328    0.5321486328          1.4972
Zn25      Zn    0.9678513672    0.0321486328    0.4678513672          1.4936
Zn26      Zn    1.0321486328   -0.0321486328    0.4678513672          1.4911
Zn27      Zn    0.9678513672   -0.0321486328    0.5321486328          1.4948
O28        O    1.0000000000    0.0000000000    0.5000000000         -2.3067
O29        O    1.0236268939    0.0859227550    0.5236268939          -1.213
O30        O    0.9763731061    0.0236268939    0.4140772450         -1.2112
O31        O    1.0859227550   -0.0236268939    0.4763731061         -1.2064
O32        O    0.9763731061    0.0859227550    0.4763731061         -1.2132
O33        O    1.0859227550    0.0236268939    0.5236268939         -1.2092
O34        O    1.0236268939   -0.0236268939    0.4140772450          -1.215
O35        O    0.9763731061   -0.0859227550    0.5236268939         -1.2089
O36        O    0.9140772450    0.0236268939    0.4763731061         -1.2165
O37        O    1.0236268939   -0.0859227550    0.4763731061         -1.2104
O38        O    0.9140772450   -0.0236268939    0.5236268939          -1.215
O39        O    0.9763731061   -0.0236268939    0.5859227550         -1.2141
O40        O    1.0236268939    0.0236268939    0.5859227550          -1.212
C41        C    1.0000000000    0.1027311108    0.5000000000          0.3059
C42        C    1.0000000000    0.0000000000    0.3972688892          0.3108
C43        C    1.1027311108    0.0000000000    0.5000000000          0.3004
C44        C    1.0000000000   -0.1027311108    0.5000000000          0.3041
C45        C    0.8972688892    0.0000000000    0.5000000000          0.3155
C46        C    1.0000000000    0.0000000000    0.6027311108           0.306
Zn47      Zn    1.0321486328    0.4678513672   -0.0321486328          1.4972
Zn48      Zn    0.9678513672    0.4678513672    0.0321486328          1.4936
Zn49      Zn    1.0321486328    0.5321486328    0.0321486328          1.4911
Zn50      Zn    0.9678513672    0.5321486328   -0.0321486328          1.4948
O51        O    1.0000000000    0.5000000000    0.0000000000         -2.3067
O52        O    1.0236268939    0.4140772450   -0.0236268939          -1.213
O53        O    0.9763731061    0.4763731061    0.0859227550         -1.2112
O54        O    1.0859227550    0.5236268939    0.0236268939         -1.2064
O55        O    0.9763731061    0.4140772450    0.0236268939         -1.2132
O56        O    1.0859227550    0.4763731061   -0.0236268939         -1.2092
O57        O    1.0236268939    0.5236268939    0.0859227550          -1.215
O58        O    0.9763731061    0.5859227550   -0.0236268939         -1.2089
O59        O    0.9140772450    0.4763731061    0.0236268939         -1.2165
O60        O    1.0236268939    0.5859227550    0.0236268939         -1.2104
O61        O    0.9140772450    0.5236268939   -0.0236268939          -1.215
O62        O    0.9763731061    0.5236268939   -0.0859227550         -1.2141
O63        O    1.0236268939    0.4763731061   -0.0859227550          -1.212
C64        C    1.0000000000    0.3972688892    0.0000000000          0.3059
C65        C    1.0000000000    0.5000000000    0.1027311108          0.3108
C66        C    1.1027311108    0.5000000000    0.0000000000          0.3004
C67        C    1.0000000000    0.6027311108    0.0000000000          0.3041
C68        C    0.8972688892    0.5000000000    0.0000000000          0.3155
C69        C    1.0000000000    0.5000000000   -0.1027311108           0.306
Zn70      Zn    1.0321486328    0.5321486328    0.4678513672          1.4972
Zn71      Zn    0.9678513672    0.4678513672    0.4678513672          1.4936
Zn72      Zn    1.0321486328    0.4678513672    0.5321486328          1.4911
Zn73      Zn    0.9678513672    0.5321486328    0.5321486328          1.4948
O74        O    1.0000000000    0.5000000000    0.5000000000         -2.3067
O75        O    1.0236268939    0.5236268939    0.4140772450          -1.213
O76        O    0.9763731061    0.4140772450    0.4763731061         -1.2112
O77        O    1.0859227550    0.4763731061    0.5236268939         -1.2064
O78        O    0.9763731061    0.4763731061    0.4140772450         -1.2132
O79        O    1.0859227550    0.5236268939    0.4763731061         -1.2092
O80        O    1.0236268939    0.4140772450    0.5236268939          -1.215
O81        O    0.9763731061    0.5236268939    0.5859227550         -1.2089
O82        O    0.9140772450    0.4763731061    0.4763731061         -1.2165
O83        O    1.0236268939    0.4763731061    0.5859227550         -1.2104
O84        O    0.9140772450    0.5236268939    0.5236268939          -1.215
O85        O    0.9763731061    0.5859227550    0.5236268939         -1.2141
O86        O    1.0236268939    0.5859227550    0.4763731061          -1.212
C87        C    1.0000000000    0.5000000000    0.3972688892          0.3059
C88        C    1.0000000000    0.3972688892    0.5000000000          0.3108
C89        C    1.1027311108    0.5000000000    0.5000000000          0.3004
C90        C    1.0000000000    0.5000000000    0.6027311108          0.3041
C91        C    0.8972688892    0.5000000000    0.5000000000          0.3155
C92        C    1.0000000000    0.6027311108    0.5000000000           0.306
Zn93      Zn    0.4678513672    0.9678513672   -0.0321486328          1.4972
Zn94      Zn    0.4678513672    1.0321486328    0.0321486328          1.4936
Zn95      Zn    0.5321486328    0.9678513672    0.0321486328          1.4911
Zn96      Zn    0.5321486328    1.0321486328   -0.0321486328          1.4948
O97        O    0.5000000000    1.0000000000    0.0000000000         -2.3067
O98        O    0.4140772450    0.9763731061   -0.0236268939          -1.213
O99        O    0.4763731061    1.0236268939    0.0859227550         -1.2112
O100       O    0.5236268939    0.9140772450    0.0236268939         -1.2064
O101       O    0.4140772450    1.0236268939    0.0236268939         -1.2132
O102       O    0.4763731061    0.9140772450   -0.0236268939         -1.2092
O103       O    0.5236268939    0.9763731061    0.0859227550          -1.215
O104       O    0.5859227550    1.0236268939   -0.0236268939         -1.2089
O105       O    0.4763731061    1.0859227550    0.0236268939         -1.2165
O106       O    0.5859227550    0.9763731061    0.0236268939         -1.2104
O107       O    0.5236268939    1.0859227550   -0.0236268939          -1.215
O108       O    0.5236268939    1.0236268939   -0.0859227550         -1.2141
O109       O    0.4763731061    0.9763731061   -0.0859227550          -1.212
C110       C    0.3972688892    1.0000000000    0.0000000000          0.3059
C111       C    0.5000000000    1.0000000000    0.1027311108          0.3108
C112       C    0.5000000000    0.8972688892    0.0000000000          0.3004
C113       C    0.6027311108    1.0000000000    0.0000000000          0.3041
C114       C    0.5000000000    1.1027311108    0.0000000000          0.3155
C115       C    0.5000000000    1.0000000000   -0.1027311108           0.306
Zn116     Zn    0.4678513672    1.0321486328    0.4678513672          1.4972
Zn117     Zn    0.4678513672    0.9678513672    0.5321486328          1.4936
Zn118     Zn    0.5321486328    0.9678513672    0.4678513672          1.4911
Zn119     Zn    0.5321486328    1.0321486328    0.5321486328          1.4948
O120       O    0.5000000000    1.0000000000    0.5000000000         -2.3067
O121       O    0.4140772450    1.0236268939    0.4763731061          -1.213
O122       O    0.4763731061    0.9140772450    0.5236268939         -1.2112
O123       O    0.5236268939    0.9763731061    0.4140772450         -1.2064
O124       O    0.4140772450    0.9763731061    0.5236268939         -1.2132
O125       O    0.4763731061    1.0236268939    0.4140772450         -1.2092
O126       O    0.5236268939    0.9140772450    0.4763731061          -1.215
O127       O    0.5859227550    1.0236268939    0.5236268939         -1.2089
O128       O    0.4763731061    0.9763731061    0.5859227550         -1.2165
O129       O    0.5859227550    0.9763731061    0.4763731061         -1.2104
O130       O    0.5236268939    1.0236268939    0.5859227550          -1.215
O131       O    0.5236268939    1.0859227550    0.5236268939         -1.2141
O132       O    0.4763731061    1.0859227550    0.4763731061          -1.212
C133       C    0.3972688892    1.0000000000    0.5000000000          0.3059
C134       C    0.5000000000    0.8972688892    0.5000000000          0.3108
C135       C    0.5000000000    1.0000000000    0.3972688892          0.3004
C136       C    0.6027311108    1.0000000000    0.5000000000          0.3041
C137       C    0.5000000000    1.0000000000    0.6027311108          0.3155
C138       C    0.5000000000    1.1027311108    0.5000000000           0.306
Zn139     Zn    0.4678513672    0.5321486328   -0.0321486328          1.4972
Zn140     Zn    0.4678513672    0.4678513672    0.0321486328          1.4936
Zn141     Zn    0.5321486328    0.4678513672   -0.0321486328          1.4911
Zn142     Zn    0.5321486328    0.5321486328    0.0321486328          1.4948
O143       O    0.5000000000    0.5000000000    0.0000000000         -2.3067
O144       O    0.4140772450    0.5236268939   -0.0236268939          -1.213
O145       O    0.4763731061    0.4140772450    0.0236268939         -1.2112
O146       O    0.5236268939    0.4763731061   -0.0859227550         -1.2064
O147       O    0.4140772450    0.4763731061    0.0236268939         -1.2132
O148       O    0.4763731061    0.5236268939   -0.0859227550         -1.2092
O149       O    0.5236268939    0.4140772450   -0.0236268939          -1.215
O150       O    0.5859227550    0.5236268939    0.0236268939         -1.2089
O151       O    0.4763731061    0.4763731061    0.0859227550         -1.2165
O152       O    0.5859227550    0.4763731061   -0.0236268939         -1.2104
O153       O    0.5236268939    0.5236268939    0.0859227550          -1.215
O154       O    0.5236268939    0.5859227550    0.0236268939         -1.2141
O155       O    0.4763731061    0.5859227550   -0.0236268939          -1.212
C156       C    0.3972688892    0.5000000000    0.0000000000          0.3059
C157       C    0.5000000000    0.3972688892    0.0000000000          0.3108
C158       C    0.5000000000    0.5000000000   -0.1027311108          0.3004
C159       C    0.6027311108    0.5000000000    0.0000000000          0.3041
C160       C    0.5000000000    0.5000000000    0.1027311108          0.3155
C161       C    0.5000000000    0.6027311108    0.0000000000           0.306
Zn162     Zn    0.4678513672    0.5321486328    0.4678513672          1.4972
Zn163     Zn    0.4678513672    0.4678513672    0.5321486328          1.4936
Zn164     Zn    0.5321486328    0.4678513672    0.4678513672          1.4911
Zn165     Zn    0.5321486328    0.5321486328    0.5321486328          1.4948
O166       O    0.5000000000    0.5000000000    0.5000000000         -2.3067
O167       O    0.4140772450    0.5236268939    0.4763731061          -1.213
O168       O    0.4763731061    0.4140772450    0.5236268939         -1.2112
O169       O    0.5236268939    0.4763731061    0.4140772450         -1.2064
O170       O    0.4140772450    0.4763731061    0.5236268939         -1.2132
O171       O    0.4763731061    0.5236268939    0.4140772450         -1.2092
O172       O    0.5236268939    0.4140772450    0.4763731061          -1.215
O173       O    0.5859227550    0.5236268939    0.5236268939         -1.2089
O174       O    0.4763731061    0.4763731061    0.5859227550         -1.2165
O175       O    0.5859227550    0.4763731061    0.4763731061         -1.2104
O176       O    0.5236268939    0.5236268939    0.5859227550          -1.215
O177       O    0.5236268939    0.5859227550    0.5236268939         -1.2141
O178       O    0.4763731061    0.5859227550    0.4763731061          -1.212
C179       C    0.3972688892    0.5000000000    0.5000000000          0.3059
C180       C    0.5000000000    0.3972688892    0.5000000000          0.3108
C181       C    0.5000000000    0.5000000000    0.3972688892          0.3004
C182       C    0.6027311108    0.5000000000    0.5000000000          0.3041
C183       C    0.5000000000    0.5000000000    0.6027311108          0.3155
C184       C    0.5000000000    0.6027311108    0.5000000000           0.306
C921       C    0.5000000000    0.5000000000   -0.1468881697          0.5256
C922       C    0.4959568710    0.4665834964   -0.1670341136          0.5293
C923       C    0.4943521071    0.4663040933   -0.2068335929         -0.4682
C924       C    0.4982253826    0.4975036106   -0.2307488629          0.5296
C925       C    0.5007573521    0.5302955123   -0.2094027675          0.5271
C926       C    0.5017764062    0.5309658853   -0.1699924302          0.5251
C927       C    0.4943208399    0.4943612204   -0.2787067536         -0.4659
C928       C    0.4871261155    0.4387058144   -0.2212940915         -0.4621
C929       C    0.5140361001    0.3994634350   -0.1512109226          0.5139
H930       H    0.5038410688    0.5585274409   -0.1556483440          0.5231
C931       C    0.5001258400    0.5691902613   -0.2288294548          0.5284
C932       C    0.5057389155    0.5232390507   -0.3131372263          0.5261
C933       C    0.5000000000    0.5000000000   -0.3531118303         -0.4682
N934       N    0.5157812387    0.4629624884   -0.3395945857          0.5184
N935       N    0.5118125227    0.4596413927   -0.2971318540          0.5204
H936       H    0.4954095113    0.4359051723   -0.2923748787         -0.4667
H937       H    0.5446831915    0.4626079990   -0.3437498375          0.4952
H938       H    0.4881951392    0.5491112632   -0.3127921148         -0.4596
H939       H    0.4691003947    0.4963322154   -0.3569940467         -0.4431
H940       H    0.5357849173    0.5317859655   -0.3101241266          0.5018
H941       H    0.4634024892    0.4910207535   -0.2827932396         -0.4408
N942       N    0.4682376408    0.4146078635   -0.2332027265         -0.4466
C943       C    0.4589767013    0.5789949185   -0.2417715300         -0.4379
H944       H    0.4428674766    0.5531571366   -0.2492236126         -0.4248
H945       H    0.4595376531    0.5977235866   -0.2668181504         -0.4376
H946       H    0.4433926256    0.5935687759   -0.2187887430          -0.426
H947       H    0.5097700110    0.5916954146   -0.2092520555          0.5201
H948       H    0.5199833283    0.5697631953   -0.2529024872           0.513
H949       H    0.4968718069    0.3768127242   -0.1645109460           0.528
H950       H    0.5240425238    0.3893883131   -0.1232611347          0.5049
H951       H    0.5386816998    0.4059729510   -0.1694470990          0.4946
O952       O    0.4898202760    0.4332127627   -0.1459312919         -0.4665
C889       C    0.5000000000    0.5000000000    0.1468881697          0.5256
C890       C    0.5334165036    0.5040431290    0.1670341136          0.5293
C891       C    0.5336959067    0.5056478929    0.2068335929         -0.4682
C892       C    0.5024963894    0.5017746174    0.2307488629          0.5296
C893       C    0.4697044877    0.4992426479    0.2094027675          0.5271
C894       C    0.4690341147    0.4982235938    0.1699924302          0.5251
C895       C    0.5056387796    0.5056791601    0.2787067536         -0.4659
C896       C    0.5612941856    0.5128738845    0.2212940915         -0.4621
C897       C    0.6005365650    0.4859638999    0.1512109226          0.5139
H898       H    0.4414725591    0.4961589312    0.1556483440          0.5231
C899       C    0.4308097387    0.4998741600    0.2288294548          0.5284
C900       C    0.4767609493    0.4942610845    0.3131372263          0.5261
C901       C    0.5000000000    0.5000000000    0.3531118303         -0.4682
N902       N    0.5370375116    0.4842187613    0.3395945857          0.5184
N903       N    0.5403586073    0.4881874773    0.2971318540          0.5204
H904       H    0.5640948277    0.5045904887    0.2923748787         -0.4667
H905       H    0.5373920010    0.4553168085    0.3437498375          0.4952
H906       H    0.4508887368    0.5118048608    0.3127921148         -0.4596
H907       H    0.5036677846    0.5308996053    0.3569940467         -0.4431
H908       H    0.4682140345    0.4642150827    0.3101241266          0.5018
H909       H    0.5089792465    0.5365975108    0.2827932396         -0.4408
N910       N    0.5853921365    0.5317623592    0.2332027265         -0.4466
C911       C    0.4210050815    0.5410232987    0.2417715300         -0.4379
H912       H    0.4468428634    0.5571325234    0.2492236126         -0.4248
H913       H    0.4022764134    0.5404623469    0.2668181504         -0.4376
H914       H    0.4064312241    0.5566073744    0.2187887430          -0.426
H915       H    0.4083045854    0.4902299890    0.2092520555          0.5201
H916       H    0.4302368047    0.4800166717    0.2529024872           0.513
H917       H    0.6231872758    0.5031281931    0.1645109460           0.528
H918       H    0.6106116869    0.4759574762    0.1232611347          0.5049
H919       H    0.5940270490    0.4613183002    0.1694470990          0.4946
O920       O    0.5667872373    0.5101797240    0.1459312919         -0.4665
C857       C    0.5000000000    0.6468881697    0.5000000000          0.5256
C858       C    0.5302923856    0.6670341136    0.4853241362          0.5293
C859       C    0.5300355052    0.7068335929    0.4837156133         -0.4682
C860       C    0.5017847891    0.7307488629    0.4975108727          0.5296
C861       C    0.4715924102    0.7094027675    0.5105546430          0.5271
C862       C    0.4712893039    0.6699924302    0.5117361665          0.5251
C863       C    0.5034888824    0.7787067536    0.4927974731         -0.4659
C864       C    0.5537913850    0.7212940915    0.4679188374         -0.4621
C865       C    0.5996457834    0.6512109226    0.4806265422          0.5139
H866       H    0.4458920376    0.6556483440    0.5226394247          0.5231
C867       C    0.4346006229    0.7288294548    0.5225882616          0.5284
C868       C    0.4798841626    0.8131372263    0.5129746566          0.5261
C869       C    0.5000000000    0.8531118303    0.5000000000         -0.4682
N870       N    0.5401550187    0.8395945857    0.5028981432          0.5184
N871       N    0.5420072920    0.7971318540    0.4980660146          0.5204
H872       H    0.5591302335    0.7923748787    0.4748437879         -0.4667
H873       H    0.5498760810    0.8437498375    0.5301185305          0.4952
H874       H    0.4497169224    0.8127921148    0.5047836197         -0.4596
H875       H    0.4934344807    0.8569940467    0.4695840140         -0.4431
H876       H    0.4815577898    0.8101241266    0.5441677800          0.5018
H877       H    0.4966076981    0.7827932396    0.4624700526         -0.4408
N878       N    0.5704493081    0.7332027265    0.4422283857         -0.4466
C879       C    0.4119643577    0.7417715300    0.4868533709         -0.4379
H880       H    0.4311703649    0.7492236126    0.4632265350         -0.4248
H881       H    0.3944329246    0.7668181504    0.4934659750         -0.4376
H882       H    0.3931195214    0.7187887430    0.4768467290          -0.426
H883       H    0.4164471217    0.7092520555    0.5390181841          0.5201
H884       H    0.4405073757    0.7529024872    0.5415555589           0.513
H885       H    0.6154948254    0.6645109460    0.4570368087           0.528
H886       H    0.6124243907    0.6232611347    0.4868187786          0.5049
H887       H    0.6014926276    0.6694470990    0.5060503214          0.4946
O888       O    0.5598616379    0.6459312919    0.4686831329         -0.4665
C825       C    0.5000000000    1.1468881697    0.5000000000          0.5256
C826       C    0.4665834964    1.1670341136    0.5040431290          0.5293
C827       C    0.4663040933    1.2068335929    0.5056478929         -0.4682
C828       C    0.4975036106    1.2307488629    0.5017746174          0.5296
C829       C    0.5302955123    1.2094027675    0.4992426479          0.5271
C830       C    0.5309658853    1.1699924302    0.4982235938          0.5251
C831       C    0.4943612204    1.2787067536    0.5056791601         -0.4659
C832       C    0.4387058144    1.2212940915    0.5128738845         -0.4621
C833       C    0.3994634350    1.1512109226    0.4859638999          0.5139
H834       H    0.5585274409    1.1556483440    0.4961589312          0.5231
C835       C    0.5691902613    1.2288294548    0.4998741600          0.5284
C836       C    0.5232390507    1.3131372263    0.4942610845          0.5261
C837       C    0.5000000000    1.3531118303    0.5000000000         -0.4682
N838       N    0.4629624884    1.3395945857    0.4842187613          0.5184
N839       N    0.4596413927    1.2971318540    0.4881874773          0.5204
H840       H    0.4359051723    1.2923748787    0.5045904887         -0.4667
H841       H    0.4626079990    1.3437498375    0.4553168085          0.4952
H842       H    0.5491112632    1.3127921148    0.5118048608         -0.4596
H843       H    0.4963322154    1.3569940467    0.5308996053         -0.4431
H844       H    0.5317859655    1.3101241266    0.4642150827          0.5018
H845       H    0.4910207535    1.2827932396    0.5365975108         -0.4408
N846       N    0.4146078635    1.2332027265    0.5317623592         -0.4466
C847       C    0.5789949185    1.2417715300    0.5410232987         -0.4379
H848       H    0.5531571366    1.2492236126    0.5571325234         -0.4248
H849       H    0.5977235866    1.2668181504    0.5404623469         -0.4376
H850       H    0.5935687759    1.2187887430    0.5566073744          -0.426
H851       H    0.5916954146    1.2092520555    0.4902299890          0.5201
H852       H    0.5697631953    1.2529024872    0.4800166717           0.513
H853       H    0.3768127242    1.1645109460    0.5031281931           0.528
H854       H    0.3893883131    1.1232611347    0.4759574762          0.5049
H855       H    0.4059729510    1.1694470990    0.4613183002          0.4946
O856       O    0.4332127627    1.1459312919    0.5101797240         -0.4665
C793       C    0.5000000000    0.8531118303    0.0000000000          0.5256
C794       C    0.5126628414    0.8329658864    0.0311875304          0.5293
C795       C    0.5113946880    0.7931664071    0.0322098418         -0.4682
C796       C    0.4996580021    0.7692511371    0.0030437254 0.5327999999999999
C797       C    0.4859762182    0.7905972325   -0.0268649435          0.5271
C798       C    0.4865425551    0.8300075698   -0.0279452831          0.5251
C799       C    0.4977662348    0.7212932464    0.0076849846         -0.4659
C800       C    0.5184531857    0.7787059085    0.0598514330         -0.4621
C801       C    0.5610131796    0.8487890774    0.0811295564          0.5139
H802       H    0.4749875311    0.8443516560   -0.0530527242          0.5231
C803       C    0.4665690671    0.7711705452   -0.0605778905          0.5284
C804       C    0.4937540393    0.6868627737   -0.0231079338          0.5261
C805       C    0.5000000000    0.6468881697    0.0000000000         -0.4682
N806       N    0.5317574543    0.6604054143    0.0247444713          0.5184
N807       N    0.5298961884    0.7028681460    0.0295731432          0.5204
H808       H    0.5270558656    0.7076251213    0.0582855013         -0.4667
H809       H    0.5572082349    0.6562501625    0.0110438762          0.4952
H810       H    0.4658675343    0.6872078852   -0.0372323205         -0.4596
H811       H    0.4747518400    0.6430059533    0.0181870467         -0.4431
H812       H    0.5158903694    0.6898758734   -0.0451486884          0.5018
H813       H    0.4723430072    0.7172067604    0.0255948317         -0.4408
N814       N    0.5136143201    0.7667972735    0.0900850416         -0.4466
C815       C    0.4258252436    0.7582284700   -0.0492058299         -0.4379
H816       H    0.4242606427    0.7507763874   -0.0187977698         -0.4248
H817       H    0.4172368794    0.7331818496   -0.0658586878         -0.4376
H818       H    0.4051298241    0.7812112570   -0.0543981652          -0.426
H819       H    0.4640945845    0.7907479445   -0.0849370550          0.5201
H820       H    0.4836595736    0.7470975128   -0.0707052140           0.513
H821       H    0.5569807890    0.8354890540    0.1092615220           0.528
H822       H    0.5746493077    0.8767388653    0.0850909460          0.5049
H823       H    0.5794137363    0.8305529010    0.0634887260          0.4946
O824       O    0.5234724564    0.8540687081    0.0633498670         -0.4665
C761       C    0.5000000000    1.1468881697    0.0000000000          0.5256
C762       C    0.4795612655    1.1670341136    0.0267444899          0.5293
C763       C    0.4805149514    1.2068335929    0.0280650263         -0.4682
C764       C    0.4995272686    1.2307488629    0.0030261777          0.5296
C765       C    0.5206116471    1.2094027675   -0.0222160224          0.5271
C766       C    0.5203502389    1.1699924302   -0.0234074656          0.5251
C767       C    0.5001281863    1.2787067536    0.0080020162         -0.4659
C768       C    0.4664172537    1.2212940915    0.0528669390         -0.4621
C769       C    0.4197526595    1.1512109226    0.0621689420          0.5139
H770       H    0.5381170592    1.1556483440   -0.0445791985          0.5231
C771       C    0.5482219257    1.2288294548   -0.0496180811          0.5284
C772       C    0.5121184036    1.3131372263   -0.0206429873          0.5261
C773       C    0.5000000000    1.3531118303    0.0000000000         -0.4682
N774       N    0.4628415233    1.3395945857    0.0154942689          0.5184
N775       N    0.4633635988    1.2971318540    0.0206428435          0.5204
H776       H    0.4585319964    1.2923748787    0.0490879232         -0.4667
H777       H    0.4419043862    1.3437498375   -0.0044327185          0.4952
H778       H    0.5427424468    1.3127921148   -0.0269138283         -0.4596
H779       H    0.5195586197    1.3569940467    0.0242012117         -0.4431
H780       H    0.4965776868    1.3101241266   -0.0477409225          0.5018
H781       H    0.5199287741    1.2827932396    0.0319820047         -0.4408
N782       N    0.4631123055    1.2332027265    0.0833064369         -0.4466
C783       C    0.5845248426    1.2417715300   -0.0279044648         -0.4379
H784       H    0.5780155189    1.2492236126    0.0018398926         -0.4248
H785       H    0.5972005502    1.2668181504   -0.0417031645         -0.4376
H786       H    0.6058569622    1.2187887430   -0.0274556772          -0.426
H787       H    0.5570322887    1.2092520555   -0.0724625435          0.5201
H788       H    0.5344068883    1.2529024872   -0.0638936840           0.513
H789       H    0.4162239804    1.1645109460    0.0903685179           0.528
H790       H    0.4055545677    1.1232611347    0.0623942989          0.5049
H791       H    0.4066552379    1.1694470990    0.0403003130          0.4946
O792       O    0.4606531086    1.1459312919    0.0549179751         -0.4665
C729       C    0.5000000000    1.0000000000   -0.1468881697          0.5256
C730       C    0.4959568710    0.9665834964   -0.1670341136          0.5293
C731       C    0.4943521071    0.9663040933   -0.2068335929         -0.4682
C732       C    0.4982253826    0.9975036106   -0.2307488629          0.5296
C733       C    0.5007573521    1.0302955123   -0.2094027675          0.5271
C734       C    0.5017764062    1.0309658853   -0.1699924302          0.5251
C735       C    0.4943208399    0.9943612204   -0.2787067536         -0.4659
C736       C    0.4871261155    0.9387058144   -0.2212940915         -0.4621
C737       C    0.5140361001    0.8994634350   -0.1512109226          0.5139
H738       H    0.5038410688    1.0585274409   -0.1556483440          0.5231
C739       C    0.5001258400    1.0691902613   -0.2288294548          0.5284
C740       C    0.5057389155    1.0232390507   -0.3131372263          0.5261
C741       C    0.5000000000    1.0000000000   -0.3531118303         -0.4682
N742       N    0.5157812387    0.9629624884   -0.3395945857          0.5184
N743       N    0.5118125227    0.9596413927   -0.2971318540          0.5204
H744       H    0.4954095113    0.9359051723   -0.2923748787         -0.4667
H745       H    0.5446831915    0.9626079990   -0.3437498375          0.4952
H746       H    0.4881951392    1.0491112632   -0.3127921148         -0.4596
H747       H    0.4691003947    0.9963322154   -0.3569940467         -0.4431
H748       H    0.5357849173    1.0317859655   -0.3101241266          0.5018
H749       H    0.4634024892    0.9910207535   -0.2827932396         -0.4408
N750       N    0.4682376408    0.9146078635   -0.2332027265         -0.4466
C751       C    0.4589767013    1.0789949185   -0.2417715300         -0.4379
H752       H    0.4428674766    1.0531571366   -0.2492236126         -0.4248
H753       H    0.4595376531    1.0977235866   -0.2668181504         -0.4376
H754       H    0.4433926256    1.0935687759   -0.2187887430          -0.426
H755       H    0.5097700110    1.0916954146   -0.2092520555          0.5201
H756       H    0.5199833283    1.0697631953   -0.2529024872           0.513
H757       H    0.4968718069    0.8768127242   -0.1645109460           0.528
H758       H    0.5240425238    0.8893883131   -0.1232611347          0.5049
H759       H    0.5386816998    0.9059729510   -0.1694470990          0.4946
O760       O    0.4898202760    0.9332127627   -0.1459312919         -0.4665
C697       C    0.5000000000    1.0000000000    0.1468881697          0.5256
C698       C    0.5334165036    1.0040431290    0.1670341136          0.5293
C699       C    0.5336959067    1.0056478929    0.2068335929         -0.4682
C700       C    0.5024963894    1.0017746174    0.2307488629          0.5296
C701       C    0.4697044877    0.9992426479    0.2094027675          0.5271
C702       C    0.4690341147    0.9982235938    0.1699924302          0.5251
C703       C    0.5056387796    1.0056791601    0.2787067536         -0.4659
C704       C    0.5612941856    1.0128738845    0.2212940915         -0.4621
C705       C    0.6005365650    0.9859638999    0.1512109226          0.5139
H706       H    0.4414725591    0.9961589312    0.1556483440          0.5231
C707       C    0.4308097387    0.9998741600    0.2288294548          0.5284
C708       C    0.4767609493    0.9942610845    0.3131372263          0.5261
C709       C    0.5000000000    1.0000000000    0.3531118303         -0.4682
N710       N    0.5370375116    0.9842187613    0.3395945857          0.5184
N711       N    0.5403586073    0.9881874773    0.2971318540          0.5204
H712       H    0.5640948277    1.0045904887    0.2923748787         -0.4667
H713       H    0.5373920010    0.9553168085    0.3437498375          0.4952
H714       H    0.4508887368    1.0118048608    0.3127921148         -0.4596
H715       H    0.5036677846    1.0308996053    0.3569940467         -0.4431
H716       H    0.4682140345    0.9642150827    0.3101241266          0.5018
H717       H    0.5089792465    1.0365975108    0.2827932396         -0.4408
N718       N    0.5853921365    1.0317623592    0.2332027265         -0.4466
C719       C    0.4210050815    1.0410232987    0.2417715300         -0.4379
H720       H    0.4468428634    1.0571325234    0.2492236126         -0.4248
H721       H    0.4022764134    1.0404623469    0.2668181504         -0.4376
H722       H    0.4064312241    1.0566073744    0.2187887430          -0.426
H723       H    0.4083045854    0.9902299890    0.2092520555          0.5201
H724       H    0.4302368047    0.9800166717    0.2529024872           0.513
H725       H    0.6231872758    1.0031281931    0.1645109460           0.528
H726       H    0.6106116869    0.9759574762    0.1232611347          0.5049
H727       H    0.5940270490    0.9613183002    0.1694470990          0.4946
O728       O    0.5667872373    1.0101797240    0.1459312919         -0.4665
C665       C    0.8531118303    0.5000000000    0.5000000000          0.5256
C666       C    0.8329658864    0.4782526675    0.5256916938          0.5293
C667       C    0.7931664071    0.4791392966    0.5270581572         -0.4682
C668       C    0.7692511371    0.4993769084    0.5029988304          0.5296
C669       C    0.7905972325    0.5216941456    0.4788397615          0.5271
C670       C    0.8300075698    0.5214924932    0.4776367621          0.5251
C671       C    0.7212932464    0.4997288785    0.5079984491         -0.4659
C672       C    0.7787059085    0.4638220049    0.5511259891         -0.4621
C673       C    0.8487890774    0.4167515073    0.5580887378          0.5139
H674       H    0.8443516560    0.5402932632    0.4573776105          0.5231
C675       C    0.7711705452    0.5506368951    0.4528490409          0.5284
C676       C    0.6868627737    0.5131330103    0.4799871874          0.5261
C677       C    0.6468881697    0.5000000000    0.5000000000         -0.4682
N678       N    0.6604054143    0.4621149103    0.5136214807          0.5184
N679       N    0.7028681460    0.4623795201    0.5187896878          0.5204
H680       H    0.7076251213    0.4561350643    0.5469583533         -0.4667
H681       H    0.6562501625    0.4421978136    0.4926749345          0.4952
H682       H    0.6872078852    0.5440317273    0.4752517091         -0.4596
H683       H    0.6430059533    0.5183270929    0.5251466880         -0.4431
H684       H    0.6898758734    0.4989633100    0.4521477986          0.5018
H685       H    0.7172067604    0.5183086731    0.5329362590         -0.4408
N686       N    0.7667972735    0.4590028194    0.5813627409         -0.4466
C687       C    0.7582284700    0.5858115251    0.4763464518         -0.4379
H688       H    0.7507763874    0.5778266273    0.5057290912         -0.4248
H689       H    0.7331818496    0.5991597459    0.4631972056         -0.4376
H690       H    0.7812112570    0.6070947038    0.4778587474          -0.426
H691       H    0.7907479445    0.5605757944    0.4304724853          0.5201
H692       H    0.7470975128    0.5375511359    0.4379021014           0.513
H693       H    0.8354890540    0.4118205988    0.5860771962           0.528
H694       H    0.8767388653    0.4025598486    0.5576055998          0.5049
H695       H    0.8305529010    0.4047612180    0.5355940197          0.4946
O696       O    0.8540687081    0.4579627275    0.5528869508         -0.4665
C633       C    1.1468881697    0.5000000000    0.5000000000          0.5256
C634       C    1.1670341136    0.5256916938    0.4782526675          0.5293
C635       C    1.2068335929    0.5270581572    0.4791392966         -0.4682
C636       C    1.2307488629    0.5029988304    0.4993769084          0.5296
C637       C    1.2094027675    0.4788397615    0.5216941456          0.5271
C638       C    1.1699924302    0.4776367621    0.5214924932          0.5251
C639       C    1.2787067536    0.5079984491    0.4997288785         -0.4659
C640       C    1.2212940915    0.5511259891    0.4638220049         -0.4621
C641       C    1.1512109226    0.5580887378    0.4167515073          0.5139
H642       H    1.1556483440    0.4573776105    0.5402932632          0.5231
C643       C    1.2288294548    0.4528490409    0.5506368951          0.5284
C644       C    1.3131372263    0.4799871874    0.5131330103          0.5261
C645       C    1.3531118303    0.5000000000    0.5000000000         -0.4682
N646       N    1.3395945857    0.5136214807    0.4621149103          0.5184
N647       N    1.2971318540    0.5187896878    0.4623795201          0.5204
H648       H    1.2923748787    0.5469583533    0.4561350643         -0.4667
H649       H    1.3437498375    0.4926749345    0.4421978136          0.4952
H650       H    1.3127921148    0.4752517091    0.5440317273         -0.4596
H651       H    1.3569940467    0.5251466880    0.5183270929         -0.4431
H652       H    1.3101241266    0.4521477986    0.4989633100          0.5018
H653       H    1.2827932396    0.5329362590    0.5183086731         -0.4408
N654       N    1.2332027265    0.5813627409    0.4590028194         -0.4466
C655       C    1.2417715300    0.4763464518    0.5858115251         -0.4379
H656       H    1.2492236126    0.5057290912    0.5778266273         -0.4248
H657       H    1.2668181504    0.4631972056    0.5991597459         -0.4376
H658       H    1.2187887430    0.4778587474    0.6070947038          -0.426
H659       H    1.2092520555    0.4304724853    0.5605757944          0.5201
H660       H    1.2529024872    0.4379021014    0.5375511359           0.513
H661       H    1.1645109460    0.5860771962    0.4118205988           0.528
H662       H    1.1232611347    0.5576055998    0.4025598486          0.5049
H663       H    1.1694470990    0.5355940197    0.4047612180          0.4946
O664       O    1.1459312919    0.5528869508    0.4579627275         -0.4665
C601       C    0.6468881697    0.5000000000    0.0000000000          0.5256
C602       C    0.6670341136    0.4990711501    0.0336473898          0.5293
C603       C    0.7068335929    0.4974991862    0.0340743122         -0.4682
C604       C    0.7307488629    0.4984643731    0.0026501088          0.5296
C605       C    0.7094027675    0.4979464520   -0.0302353202          0.5271
C606       C    0.6699924302    0.4988989936   -0.0309972492          0.5251
C607       C    0.7787067536    0.4948678554    0.0061408295         -0.4659
C608       C    0.7212940915    0.4928619667    0.0622234889         -0.4621
C609       C    0.6512109226    0.5232929345    0.0988030982          0.5139
H610       H    0.6556483440    0.4984004997   -0.0586315337          0.5231
C611       C    0.7288294548    0.4937130814   -0.0689041562          0.5284
C612       C    0.8131372263    0.5035605353   -0.0236708939          0.5261
C613       C    0.8531118303    0.5000000000    0.0000000000         -0.4682
N614       N    0.8395945857    0.5191457790    0.0354155885          0.5184
N615       N    0.7971318540    0.5155019259    0.0390901928          0.5204
H616       H    0.7923748787    0.5013692640    0.0642444133         -0.4667
H617       H    0.8437498375    0.5479562017    0.0330900598          0.4952
H618       H    0.8127921148    0.4836945495   -0.0478058908         -0.4596
H619       H    0.8569940467    0.4695732868    0.0065156251         -0.4431
H620       H    0.8101241266    0.5326851445   -0.0349655435          0.5018
H621       H    0.7827932396    0.4643921432    0.0123322828         -0.4408
N622       N    0.7332027265    0.4762880614    0.0879682238         -0.4466
C623       C    0.7417715300    0.4518323842   -0.0748531160         -0.4379
H624       H    0.7492236126    0.4381870072   -0.0476336050         -0.4248
H625       H    0.7668181504    0.4506552400   -0.0935531697         -0.4376
H626       H    0.7187887430    0.4349647419   -0.0879199969          -0.426
H627       H    0.7092520555    0.5012300795   -0.0922062312          0.5201
H628       H    0.7529024872    0.5134320142   -0.0713149200           0.513
H629       H    0.6645109460    0.5083016672    0.1229470326           0.528
H630       H    0.6232611347    0.5341900078    0.1079075141          0.5049
H631       H    0.6694470990    0.5472291990    0.0900375622          0.4946
O632       O    0.6459312919    0.4960536019    0.0674432190         -0.4665
C569       C    1.1468881697    0.5000000000    0.0000000000          0.5256
C570       C    1.1670341136    0.5046061816   -0.0333435555          0.5293
C571       C    1.2068335929    0.5062154299   -0.0335958517         -0.4682
C572       C    1.2307488629    0.5018164709   -0.0024661022          0.5296
C573       C    1.2094027675    0.4987317688    0.0302784286          0.5271
C574       C    1.1699924302    0.4977015527    0.0309315181          0.5251
C575       C    1.2787067536    0.5057734601   -0.0055421885         -0.4659
C576       C    1.2212940915    0.5139058868   -0.0610683257         -0.4621
C577       C    1.1512109226    0.4876616215   -0.1007590067          0.5139
H578       H    1.1556483440    0.4951723100    0.0584543288          0.5231
C579       C    1.2288294548    0.4987071632    0.0691782962          0.5284
C580       C    1.3131372263    0.4938699336    0.0231389480          0.5261
C581       C    1.3531118303    0.5000000000    0.0000000000         -0.4682
N582       N    1.3395945857    0.4848457086   -0.0372984211          0.5184
N583       N    1.2971318540    0.4888698761   -0.0405521050          0.5204
H584       H    1.2923748787    0.5056709070   -0.0640082833         -0.4667
H585       H    1.3437498375    0.4559538463   -0.0381403420          0.4952
H586       H    1.3127921148    0.5109748342    0.0493033865         -0.4596
H587       H    1.3569940467    0.5309570733   -0.0031460870         -0.4431
H588       H    1.3101241266    0.4636840474    0.0311778686          0.5018
H589       H    1.2827932396    0.5367437554   -0.0083606882         -0.4408
N590       N    1.2332027265    0.5331981286   -0.0848442614         -0.4466
C591       C    1.2417715300    0.5396850756    0.0796756108         -0.4379
H592       H    1.2492236126    0.5562278080    0.0541132147         -0.4248
H593       H    1.2668181504    0.5388083118    0.0983921533         -0.4376
H594       H    1.2187887430    0.5550211208    0.0945102477          -0.426
H595       H    1.2092520555    0.4886847754    0.0915175823          0.5201
H596       H    1.2529024872    0.4788428362    0.0694162174           0.513
H597       H    1.1645109460    0.5052055169   -0.1231169895           0.528
H598       H    1.1232611347    0.4778265558   -0.1110014712          0.5049
H599       H    1.1694470990    0.4629097334   -0.0946661078          0.4946
O600       O    1.1459312919    0.5113047595   -0.0666060378         -0.4665
C537       C    1.0000000000    0.5000000000   -0.1468881697          0.5256
C538       C    0.9966928078    0.4665026556   -0.1670341136          0.5293
C539       C    0.9950945772    0.4661880251   -0.2068335929         -0.4682
C540       C    0.9982807172    0.4974651838   -0.2307488629          0.5296
C541       C    1.0000908529    0.5303048411   -0.2094027675          0.5271
C542       C    1.0010949164    0.5309974649   -0.1699924302          0.5251
C543       C    0.9944462323    0.4942376776   -0.2787067536         -0.4659
C544       C    0.9884773269    0.4384374944   -0.2212940915         -0.4621
C545       C    1.0162438946    0.3997964627   -0.1512109226          0.5139
H546       H    1.0025528938    0.5585977635   -0.1556483440          0.5231
C547       C    0.9986040469    0.5691762922   -0.2288294548          0.5284
C548       C    1.0052264103    0.5233596504   -0.3131372263          0.5261
C549       C    1.0000000000    0.5000000000   -0.3531118303         -0.4682
N550       N    1.0165920201    0.4633185383   -0.3395945857          0.5184
N551       N    1.0126973079    0.4599109585   -0.2971318540          0.5204
H552       H    0.9968203160    0.4358197138   -0.2923748787         -0.4667
H553       H    1.0454947782    0.4635998009   -0.3437498375          0.4952
H554       H    0.9871178473    0.5488397487   -0.3127921148         -0.4596
H555       H    0.9691885380    0.4956535003   -0.3569940467         -0.4431
H556       H    1.0350771642    0.5325653260   -0.3101241266          0.5018
H557       H    0.9636088305    0.4902180041   -0.2827932396         -0.4408
N558       N    0.9701234288    0.4139299418   -0.2332027265         -0.4466
C559       C    0.9572492195    0.5780735483   -0.2417715300         -0.4379
H560       H    0.9417121647    0.5518877120   -0.2492236126         -0.4248
H561       H    0.9573981194    0.5968100236   -0.2668181504         -0.4376
H562       H    0.9413483777    0.5923011260   -0.2187887430          -0.426
H563       H    1.0077509092    0.5918881144   -0.2092520555          0.5201
H564       H    1.0184441307    0.5701858309   -0.2529024872           0.513
H565       H    0.9995819304    0.3767737215   -0.1645109460           0.528
H566       H    1.0264694888    0.3899438580   -0.1232611347          0.5049
H567       H    1.0407403631    0.4068464565   -0.1694470990          0.4946
O568       O    0.9912916492    0.4330050265   -0.1459312919         -0.4665
C505       C    1.0000000000    0.5000000000    0.1468881697          0.5256
C506       C    0.9665834964    0.4959568710    0.1670341136          0.5293
C507       C    0.9663040933    0.4943521071    0.2068335929         -0.4682
C508       C    0.9975036106    0.4982253826    0.2307488629          0.5296
C509       C    1.0302955123    0.5007573521    0.2094027675          0.5271
C510       C    1.0309658853    0.5017764062    0.1699924302          0.5251
C511       C    0.9943612204    0.4943208399    0.2787067536         -0.4659
C512       C    0.9387058144    0.4871261155    0.2212940915         -0.4621
C513       C    0.8994634350    0.5140361001    0.1512109226          0.5139
H514       H    1.0585274409    0.5038410688    0.1556483440          0.5231
C515       C    1.0691902613    0.5001258400    0.2288294548          0.5284
C516       C    1.0232390507    0.5057389155    0.3131372263          0.5261
C517       C    1.0000000000    0.5000000000    0.3531118303         -0.4682
N518       N    0.9629624884    0.5157812387    0.3395945857          0.5184
N519       N    0.9596413927    0.5118125227    0.2971318540          0.5204
H520       H    0.9359051723    0.4954095113    0.2923748787         -0.4667
H521       H    0.9626079990    0.5446831915    0.3437498375          0.4952
H522       H    1.0491112632    0.4881951392    0.3127921148         -0.4596
H523       H    0.9963322154    0.4691003947    0.3569940467         -0.4431
H524       H    1.0317859655    0.5357849173    0.3101241266          0.5018
H525       H    0.9910207535    0.4634024892    0.2827932396         -0.4408
N526       N    0.9146078635    0.4682376408    0.2332027265         -0.4466
C527       C    1.0789949185    0.4589767013    0.2417715300         -0.4379
H528       H    1.0531571366    0.4428674766    0.2492236126         -0.4248
H529       H    1.0977235866    0.4595376531    0.2668181504         -0.4376
H530       H    1.0935687759    0.4433926256    0.2187887430          -0.426
H531       H    1.0916954146    0.5097700110    0.2092520555          0.5201
H532       H    1.0697631953    0.5199833283    0.2529024872           0.513
H533       H    0.8768127242    0.4968718069    0.1645109460           0.528
H534       H    0.8893883131    0.5240425238    0.1232611347          0.5049
H535       H    0.9059729510    0.5386816998    0.1694470990          0.4946
O536       O    0.9332127627    0.4898202760    0.1459312919         -0.4665
C473       C    1.0000000000   -0.1468881697    0.5000000000          0.5256
C474       C    1.0334165036   -0.1670341136    0.5040431290          0.5293
C475       C    1.0336959067   -0.2068335929    0.5056478929         -0.4682
C476       C    1.0024963894   -0.2307488629    0.5017746174          0.5296
C477       C    0.9697044877   -0.2094027675    0.4992426479          0.5271
C478       C    0.9690341147   -0.1699924302    0.4982235938          0.5251
C479       C    1.0056387796   -0.2787067536    0.5056791601         -0.4659
C480       C    1.0612941856   -0.2212940915    0.5128738845         -0.4621
C481       C    1.1005365650   -0.1512109226    0.4859638999          0.5139
H482       H    0.9414725591   -0.1556483440    0.4961589312          0.5231
C483       C    0.9308097387   -0.2288294548    0.4998741600          0.5284
C484       C    0.9767609493   -0.3131372263    0.4942610845          0.5261
C485       C    1.0000000000   -0.3531118303    0.5000000000         -0.4682
N486       N    1.0370375116   -0.3395945857    0.4842187613          0.5184
N487       N    1.0403586073   -0.2971318540    0.4881874773          0.5204
H488       H    1.0640948277   -0.2923748787    0.5045904887         -0.4667
H489       H    1.0373920010   -0.3437498375    0.4553168085          0.4952
H490       H    0.9508887368   -0.3127921148    0.5118048608         -0.4596
H491       H    1.0036677846   -0.3569940467    0.5308996053         -0.4431
H492       H    0.9682140345   -0.3101241266    0.4642150827          0.5018
H493       H    1.0089792465   -0.2827932396    0.5365975108         -0.4408
N494       N    1.0853921365   -0.2332027265    0.5317623592         -0.4466
C495       C    0.9210050815   -0.2417715300    0.5410232987         -0.4379
H496       H    0.9468428634   -0.2492236126    0.5571325234         -0.4248
H497       H    0.9022764134   -0.2668181504    0.5404623469         -0.4376
H498       H    0.9064312241   -0.2187887430    0.5566073744          -0.426
H499       H    0.9083045854   -0.2092520555    0.4902299890          0.5201
H500       H    0.9302368047   -0.2529024872    0.4800166717           0.513
H501       H    1.1231872758   -0.1645109460    0.5031281931           0.528
H502       H    1.1106116869   -0.1232611347    0.4759574762          0.5049
H503       H    1.0940270490   -0.1694470990    0.4613183002          0.4946
O504       O    1.0667872373   -0.1459312919    0.5101797240         -0.4665
C441       C    1.0000000000    0.1468881697    0.5000000000          0.5256
C442       C    0.9665834964    0.1670341136    0.5040431290          0.5293
C443       C    0.9663040933    0.2068335929    0.5056478929         -0.4682
C444       C    0.9975036106    0.2307488629    0.5017746174          0.5296
C445       C    1.0302955123    0.2094027675    0.4992426479          0.5271
C446       C    1.0309658853    0.1699924302    0.4982235938          0.5251
C447       C    0.9943612204    0.2787067536    0.5056791601         -0.4659
C448       C    0.9387058144    0.2212940915    0.5128738845         -0.4621
C449       C    0.8994634350    0.1512109226    0.4859638999          0.5139
H450       H    1.0585274409    0.1556483440    0.4961589312          0.5231
C451       C    1.0691902613    0.2288294548    0.4998741600          0.5284
C452       C    1.0232390507    0.3131372263    0.4942610845          0.5261
C453       C    1.0000000000    0.3531118303    0.5000000000         -0.4682
N454       N    0.9629624884    0.3395945857    0.4842187613          0.5184
N455       N    0.9596413927    0.2971318540    0.4881874773          0.5204
H456       H    0.9359051723    0.2923748787    0.5045904887         -0.4667
H457       H    0.9626079990    0.3437498375    0.4553168085          0.4952
H458       H    1.0491112632    0.3127921148    0.5118048608         -0.4596
H459       H    0.9963322154    0.3569940467    0.5308996053         -0.4431
H460       H    1.0317859655    0.3101241266    0.4642150827          0.5018
H461       H    0.9910207535    0.2827932396    0.5365975108         -0.4408
N462       N    0.9146078635    0.2332027265    0.5317623592         -0.4466
C463       C    1.0789949185    0.2417715300    0.5410232987         -0.4379
H464       H    1.0531571366    0.2492236126    0.5571325234         -0.4248
H465       H    1.0977235866    0.2668181504    0.5404623469         -0.4376
H466       H    1.0935687759    0.2187887430    0.5566073744          -0.426
H467       H    1.0916954146    0.2092520555    0.4902299890          0.5201
H468       H    1.0697631953    0.2529024872    0.4800166717           0.513
H469       H    0.8768127242    0.1645109460    0.5031281931           0.528
H470       H    0.8893883131    0.1232611347    0.4759574762          0.5049
H471       H    0.9059729510    0.1694470990    0.4613183002          0.4946
O472       O    0.9332127627    0.1459312919    0.5101797240         -0.4665
C409       C    0.8531118303   -0.0000000000    0.5000000000          0.5256
C410       C    0.8329658864    0.0332349477    0.4946663466          0.5293
C411       C    0.7931664071    0.0334520208    0.4930519698         -0.4682
C412       C    0.7692511371    0.0024258228    0.4981300774          0.5296
C413       C    0.7905972325   -0.0302434882    0.5019295255          0.5271
C414       C    0.8300075698   -0.0308739111    0.5029737660          0.5251
C415       C    0.7212932464    0.0054147126    0.4941068190         -0.4659
C416       C    0.7787059085    0.0607498959    0.4847630632         -0.4621
C417       C    0.8487890774    0.1010045496    0.5101338036          0.5139
H418       H    0.8443516560   -0.0583348857    0.5061037905          0.5231
C419       C    0.7711705452   -0.0691335308    0.5028041047          0.5284
C420       C    0.6868627737   -0.0229994789    0.5066341991          0.5261
C421       C    0.6468881697   -0.0000000000    0.5000000000         -0.4682
N422       N    0.6604054143    0.0376206441    0.5143356862          0.5184
N423       N    0.7028681460    0.0407856214    0.5102413850          0.5204
H424       H    0.7076251213    0.0638690896    0.4929318375         -0.4667
H425       H    0.6562501625    0.0390936641    0.5432022542          0.4952
H426       H    0.6872078852   -0.0495314204    0.4901050870         -0.4596
H427       H    0.6430059533    0.0024689100    0.4689815743         -0.4431
H428       H    0.6898758734   -0.0303769052    0.5369885325          0.5018
H429       H    0.7172067604    0.0075558247    0.4630823324         -0.4408
N430       N    0.7667972735    0.0840986110    0.4649559126         -0.4466
C431       C    0.7582284700   -0.0805237249    0.4620653468         -0.4379
H432       H    0.7507763874   -0.0553288978    0.4449680142         -0.4248
H433       H    0.7331818496   -0.0992166411    0.4633508660         -0.4376
H434       H    0.7812112570   -0.0956899194    0.4470571065          -0.426
H435       H    0.7907479445   -0.0912484898    0.5133122230          0.5201
H436       H    0.7470975128   -0.0689373509    0.5226688878           0.513
H437       H    0.8354890540    0.1229738525    0.4921055649           0.528
H438       H    0.8767388653    0.1114594692    0.5197427188          0.5049
H439       H    0.8305529010    0.0954539451    0.5350129148          0.4946
O440       O    0.8540687081    0.0663431216    0.4872425680         -0.4665
C377       C    1.3531118303   -0.0000000000    0.5000000000          0.5256
C378       C    1.3329658864    0.0335780571    0.5023502530          0.5293
C379       C    1.2931664071    0.0341559423    0.5008273012         -0.4682
C380       C    1.2692511371    0.0027869813    0.4987295819          0.5296
C381       C    1.2905972325   -0.0298919269    0.4950135830          0.5271
C382       C    1.3300075698   -0.0307429438    0.4958874488          0.5251
C383       C    1.2212932464    0.0066111576    0.4954898681         -0.4659
C384       C    1.2787059085    0.0626228003    0.4989516818         -0.4621
C385       C    1.3487890774    0.0960670989    0.5327982549          0.5139
H386       H    1.3443516560   -0.0581975266    0.4927018465          0.5231
C387       C    1.2711705452   -0.0679651850    0.4870369094          0.5284
C388       C    1.1868627737   -0.0239050476    0.5012398902          0.5261
C389       C    1.1468881697   -0.0000000000    0.5000000000         -0.4682
N390       N    1.1604054143    0.0333841216    0.5225016708          0.5184
N391       N    1.2028681460    0.0373959155    0.5192327425          0.5204
H392       H    1.2076251213    0.0638061680    0.5076152771         -0.4667
H393       H    1.1562501625    0.0282656916    0.5509489943          0.4952
H394       H    1.1872078852   -0.0459920359    0.4791193022         -0.4596
H395       H    1.1430059533    0.0094459386    0.4703518552         -0.4431
H396       H    1.1898758734   -0.0379805979    0.5291269993          0.5018
H397       H    1.2172067604    0.0157392321    0.4657614072         -0.4408
N398       N    1.2667972735    0.0898583552    0.4849620333         -0.4466
C399       C    1.2582284700   -0.0698099131    0.4447760540         -0.4379
H400       H    1.2507763874   -0.0413915990    0.4338445623         -0.4248
H401       H    1.2331818496   -0.0883066291    0.4417845369         -0.4376
H402       H    1.2812112570   -0.0811731388    0.4267167673          -0.426
H403       H    1.2907479445   -0.0918882228    0.4922503750          0.5201
H404       H    1.2470975128   -0.0722836267    0.5064276071           0.513
H405       H    1.3354890540    0.1215554241    0.5202279353           0.528
H406       H    1.3767388653    0.1040677489    0.5445296741          0.5049
H407       H    1.3305529010    0.0850136056    0.5557677928          0.4946
O408       O    1.3540687081    0.0675071290    0.5026361698         -0.4665
C345       C   -0.0000000000   -0.1468881697    0.0000000000          0.5256
C346       C    0.0102214904   -0.1670341136    0.0320707146          0.5293
C347       C    0.0088783176   -0.2068335929    0.0329922460         -0.4682
C348       C   -0.0005755667   -0.2307488629    0.0030083134          0.5296
C349       C   -0.0119115333   -0.2094027675   -0.0278658756          0.5271
C350       C   -0.0112636169   -0.1699924302   -0.0288993530          0.5251
C351       C   -0.0028194181   -0.2787067536    0.0074899650         -0.4659
C352       C    0.0137854270   -0.2212940915    0.0610956307         -0.4621
C353       C    0.0545788796   -0.1512109226    0.0855906473          0.5139
H354       H   -0.0208491899   -0.1556483440   -0.0548226817          0.5231
C355       C   -0.0286626337   -0.2288294548   -0.0629742925          0.5284
C356       C   -0.0044464073   -0.3131372263   -0.0235205887          0.5261
C357       C   -0.0000000000   -0.3531118303    0.0000000000         -0.4682
N358       N    0.0297558865   -0.3395945857    0.0271184804          0.5184
N359       N    0.0275280014   -0.2971318540    0.0317893381          0.5204
H360       H    0.0224832079   -0.2923748787    0.0601973827         -0.4667
H361       H    0.0561868969   -0.3437498375    0.0154201803          0.4952
H362       H   -0.0311613699   -0.3127921148   -0.0397522318         -0.4596
H363       H   -0.0265747723   -0.3569940467    0.0161870234         -0.4431
H364       H    0.0193228042   -0.3101241266   -0.0437896922          0.5018
H365       H   -0.0295473731   -0.2827932396    0.0233871206         -0.4408
N366       N    0.0066307894   -0.2332027265    0.0908663693         -0.4466
C367       C   -0.0701617335   -0.2417715300   -0.0547762662         -0.4379
H368       H   -0.0740652909   -0.2492236126   -0.0245792410         -0.4248
H369       H   -0.0774410826   -0.2668181504   -0.0720415131         -0.4376
H370       H   -0.0903954113   -0.2187887430   -0.0615481947          -0.426
H371       H   -0.0292523462   -0.2092520555   -0.0874517147          0.5201
H372       H   -0.0108424292   -0.2529024872   -0.0717542929           0.513
H373       H    0.0483902961   -0.1645109460    0.1133281507           0.528
H374       H    0.0678691351   -0.1232611347    0.0905912177          0.5049
H375       H    0.0742843186   -0.1694470990    0.0694204570          0.4946
O376       O    0.0185201366   -0.1459312919    0.0649705040         -0.4665
C313       C    0.0000000000    0.1468881697    0.0000000000          0.5256
C314       C    0.0242005899    0.1670341136    0.0233953212          0.5293
C315       C    0.0256225834    0.2068335929    0.0226007974         -0.4682
C316       C    0.0029511761    0.2307488629    0.0008196258          0.5296
C317       C   -0.0196825216    0.2094027675   -0.0230432200          0.5271
C318       C   -0.0208962058    0.1699924302   -0.0229213929          0.5251
C319       C    0.0079631235    0.2787067536    0.0007983472         -0.4659
C320       C    0.0486271683    0.2212940915    0.0394729349         -0.4621
C321       C    0.0524685645    0.1512109226    0.0869003035          0.5139
H322       H   -0.0398705382    0.1556483440   -0.0430180815          0.5231
C323       C   -0.0437066619    0.2288294548   -0.0536380070          0.5284
C324       C   -0.0191025450    0.3131372263   -0.0144250270          0.5261
C325       C   -0.0000000000    0.3531118303    0.0000000000         -0.4682
N326       N    0.0110917579    0.3395945857    0.0387013910          0.5184
N327       N    0.0162661614    0.2971318540    0.0387784073          0.5204
H328       H    0.0439613566    0.2923748787    0.0468680984         -0.4667
H329       H   -0.0111234575    0.3437498375    0.0571928145          0.4952
H330       H   -0.0217886991    0.3127921148   -0.0455688874         -0.4596
H331       H    0.0263012780    0.3569940467   -0.0166277186         -0.4431
H332       H   -0.0478163087    0.3101241266   -0.0021233301          0.5018
H333       H    0.0340726545    0.2827932396   -0.0160953062         -0.4408
N334       N    0.0784799955    0.2332027265    0.0462769352         -0.4466
C335       C   -0.0179392993    0.2417715300   -0.0871853756         -0.4379
H336       H    0.0108523722    0.2492236126   -0.0772789261         -0.4248
H337       H   -0.0301790367    0.2668181504   -0.1013722183         -0.4376
H338       H   -0.0150258260    0.2187887430   -0.1083223671          -0.426
H339       H   -0.0653785765    0.2092520555   -0.0650318684          0.5201
H340       H   -0.0594845490    0.2529024872   -0.0415671175           0.513
H341       H    0.0800706263    0.1645109460    0.0936674186           0.528
H342       H    0.0510499739    0.1232611347    0.1010291462          0.5049
H343       H    0.0292316406    0.1694470990    0.0973800340          0.4946
O344       O    0.0499976388    0.1459312919    0.0454356464         -0.4665
C281       C   -0.1468881697   -0.0000000000    0.0000000000          0.5256
C282       C   -0.1670341136    0.0271374075   -0.0199140834          0.5293
C283       C   -0.2068335929    0.0265937576   -0.0214495893         -0.4682
C284       C   -0.2307488629    0.0013050129   -0.0027709507          0.5296
C285       C   -0.2094027675   -0.0260293108    0.0155198784          0.5271
C286       C   -0.1699924302   -0.0261136582    0.0167367419          0.5251
C287       C   -0.2787067536    0.0021282540   -0.0077148707         -0.4659
C288       C   -0.2212940915    0.0470997301   -0.0412835259         -0.4621
C289       C   -0.1512109226    0.0944964941   -0.0370813379          0.5139
H290       H   -0.1556483440   -0.0491192503    0.0320548654          0.5231
C291       C   -0.2288294548   -0.0602335954    0.0340473505          0.5284
C292       C   -0.3131372263   -0.0174365647    0.0163998427          0.5261
C293       C   -0.3531118303   -0.0000000000    0.0000000000         -0.4682
N294       N   -0.3395945857    0.0400167207   -0.0044143885          0.5184
N295       N   -0.2971318540    0.0409642165   -0.0095018864          0.5204
H296       H   -0.2923748787    0.0536033176   -0.0354387340         -0.4667
H297       H   -0.3437498375    0.0545019892    0.0205981191          0.4952
H298       H   -0.3127921148   -0.0485878928    0.0138017239         -0.4596
H299       H   -0.3569940467   -0.0119599336   -0.0287262639         -0.4431
H300       H   -0.3101241266   -0.0101472023    0.0467754443          0.5018
H301       H   -0.2827932396   -0.0101261126   -0.0362969215         -0.4408
N302       N   -0.2332027265    0.0588349436   -0.0695637395         -0.4466
C303       C   -0.2417715300   -0.0889613606    0.0029974162         -0.4379
H304       H   -0.2492236126   -0.0743467681   -0.0237142251         -0.4248
H305       H   -0.2668181504   -0.1050071682    0.0126726285         -0.4376
H306       H   -0.2187887430   -0.1093055950   -0.0034347577          -0.426
H307       H   -0.2092520555   -0.0751150906    0.0534904228          0.5201
H308       H   -0.2529024872   -0.0509928150    0.0516330286           0.513
H309       H   -0.1645109460    0.1058162289   -0.0631491583           0.528
H310       H   -0.1232611347    0.1081845126   -0.0333031447          0.5049
H311       H   -0.1694470990    0.1009124451   -0.0124112152          0.4946
O312       O   -0.1459312919    0.0532080882   -0.0416300517         -0.4665
C249       C    0.1468881697   -0.0000000000    0.0000000000          0.5256
C250       C    0.1670341136    0.0316125523    0.0115609750          0.5293
C251       C    0.2068335929    0.0315184336    0.0131871592         -0.4682
C252       C    0.2307488629    0.0020256340    0.0022973971          0.5296
C253       C    0.2094027675   -0.0293235864   -0.0076497666          0.5271
C254       C    0.1699924302   -0.0297437635   -0.0087948964          0.5251
C255       C    0.2787067536    0.0041942533    0.0068159324         -0.4659
C256       C    0.2212940915    0.0567400127    0.0265195221         -0.4621
C257       C    0.1512109226    0.1010872014    0.0092731177          0.5139
H258       H    0.1556483440   -0.0561072254   -0.0170936950          0.5231
C259       C    0.2288294548   -0.0673364728   -0.0159093532          0.5284
C260       C    0.3131372263   -0.0213166366   -0.0108898868          0.5261
C261       C    0.3531118303   -0.0000000000    0.0000000000         -0.4682
N262       N    0.3395945857    0.0396612840   -0.0069142833          0.5184
N263       N    0.2971318540    0.0419892528   -0.0022924932          0.5204
H264       H    0.2923748787    0.0613567658    0.0190936327         -0.4667
H265       H    0.3437498375    0.0466008521   -0.0349729884          0.4952
H266       H    0.3127921148   -0.0505092860    0.0002879790         -0.4596
H267       H    0.3569940467   -0.0034791877    0.0309214085         -0.4431
H268       H    0.3101241266   -0.0227826420   -0.0420934571          0.5018
H269       H    0.2827932396    0.0003921047    0.0376809092         -0.4408
N270       N    0.2332027265    0.0758926175    0.0504080850         -0.4466
C271       C    0.2417715300   -0.0862713213    0.0219172833         -0.4379
H272       H    0.2492236126   -0.0647906490    0.0434968758         -0.4248
H273       H    0.2668181504   -0.1043779814    0.0170978916         -0.4376
H274       H    0.2187887430   -0.1040165035    0.0337650359          -0.426
H275       H    0.2092520555   -0.0870475258   -0.0304340339          0.5201
H276       H    0.2529024872   -0.0633634998   -0.0353737715           0.513
H277       H    0.1645109460    0.1192241398    0.0311527687           0.528
H278       H    0.1232611347    0.1131796863    0.0018294354          0.5049
H279       H    0.1694470990    0.1003726674   -0.0162076363          0.4946
O280       O    0.1459312919    0.0627028852    0.0251497522         -0.4665
C217       C    0.0000000000    0.0000000000   -0.1468881697          0.5256
C218       C    0.0064446950   -0.0330374864   -0.1670341136          0.5293
C219       C    0.0050039774   -0.0337975300   -0.2068335929         -0.4682
C220       C   -0.0009195482   -0.0029215848   -0.2307488629          0.5296
C221       C   -0.0086095947    0.0290562648   -0.2094027675          0.5271
C222       C   -0.0078465264    0.0300078939   -0.1699924302          0.5251
C223       C   -0.0036665489   -0.0071137272   -0.2787067536         -0.4659
C224       C    0.0066286665   -0.0622798111   -0.2212940915         -0.4621
C225       C    0.0443162233   -0.0913273528   -0.1512109226          0.5139
H226       H   -0.0143703723    0.0568656975   -0.1556483440          0.5231
C227       C   -0.0211888638    0.0658660773   -0.2288294548          0.5284
C228       C   -0.0016969715    0.0238769537   -0.3131372263          0.5261
C229       C    0.0000000000    0.0000000000   -0.3531118303         -0.4682
N230       N    0.0264206798   -0.0303771697   -0.3395945857          0.5184
N231       N    0.0236676610   -0.0347590952   -0.2971318540          0.5204
H232       H    0.0153719706   -0.0623932852   -0.2923748787         -0.4667
H233       H    0.0540270480   -0.0218134689   -0.3437498375          0.4952
H234       H   -0.0263559348    0.0430886947   -0.3127921148         -0.4596
H235       H   -0.0282681830   -0.0130056941   -0.3569940467         -0.4431
H236       H    0.0242564666    0.0412617466   -0.3101241266          0.5018
H237       H   -0.0320533705   -0.0198137857   -0.2827932396         -0.4408
N238       N   -0.0039202808   -0.0910236004   -0.2332027265         -0.4466
C239       C   -0.0633575296    0.0625214493   -0.2417715300         -0.4379
H240       H   -0.0707264929    0.0329783203   -0.2492236126         -0.4248
H241       H   -0.0685917273    0.0805125819   -0.2668181504         -0.4376
H242       H   -0.0826724774    0.0715875138   -0.2187887430          -0.426
H243       H   -0.0189443727    0.0902475092   -0.2092520555          0.5201
H244       H   -0.0024729803    0.0725266929   -0.2529024872           0.513
H245       H    0.0349619471   -0.1181632462   -0.1645109460           0.528
H246       H    0.0569391369   -0.0978310938   -0.1232611347          0.5049
H247       H    0.0657592012   -0.0775440991   -0.1694470990          0.4946
O248       O    0.0108835795   -0.0666761543   -0.1459312919         -0.4665
C185       C    0.0000000000    0.0000000000    0.3531118303          0.5256
C186       C    0.0013027452    0.0336349886    0.3329658864          0.5293
C187       C    0.0028793568    0.0340444140    0.2931664071         -0.4682
C188       C    0.0015649850    0.0026328784    0.2692511371          0.5296
C189       C    0.0017173898   -0.0302562757    0.2905972325          0.5271
C190       C    0.0007564391   -0.0310075712    0.3300075698          0.5251
C191       C    0.0052000760    0.0060834122    0.2212932464         -0.4659
C192       C    0.0078291361    0.0621403148    0.2787059085         -0.4621
C193       C   -0.0221934112    0.0990558706    0.3487890774          0.5139
H194       H    0.0009477784   -0.0586456892    0.3443516560          0.5231
C195       C    0.0055207386   -0.0689697726    0.2711705452          0.5284
C196       C   -0.0038233906   -0.0236298606    0.1868627737          0.5261
C197       C   -0.0000000000    0.0000000000    0.1468881697         -0.4682
N198       N   -0.0187509924    0.0356261848    0.1604054143          0.5184
N199       N   -0.0150665252    0.0392600649    0.2028681460          0.5204
H200       H   -0.0006551755    0.0642556633    0.2076251213         -0.4667
H201       H   -0.0475854813    0.0336209950    0.1562501625          0.4952
H202       H    0.0157731351   -0.0479841549    0.1872078852         -0.4596
H203       H    0.0304972479    0.0061770642    0.1430059533         -0.4431
H204       H   -0.0330717283   -0.0346001256    0.1898758734          0.5018
H205       H    0.0357427170    0.0119357801    0.2172067604         -0.4408
N206       N    0.0246881414    0.0876992594    0.2667972735         -0.4466
C207       C    0.0473327332   -0.0753838215    0.2582284700         -0.4379
H208       H    0.0612797815   -0.0483176446    0.2507763874         -0.4248
H209       H    0.0483019748   -0.0940958029    0.2331818496         -0.4376
H210       H    0.0640541102   -0.0886373602    0.2812112570          -0.426
H211       H   -0.0022547714   -0.0921868655    0.2907479445          0.5201
H212       H   -0.0142237693   -0.0711612339    0.2470975128           0.513
H213       H   -0.0069347373    0.1230317029    0.3354890540           0.528
H214       H   -0.0329886263    0.1082808328    0.3767388653          0.5049
H215       H   -0.0462256165    0.0905569005    0.3305529010          0.4946
O216       O    0.0046957094    0.0673951939    0.3540687081         -0.4665
loop_
_geom_bond_atom_site_label_1
_geom_bond_atom_site_label_2
_geom_bond_distance
_geom_bond_site_symmetry_2
_ccdc_geom_bond_type
Zn1          O5 1.942       .   S
Zn1          O6 1.922       .   S
Zn1         O10 1.922       .   S
Zn1         O17 1.922       .   S
Zn2          O5 1.942       .   S
Zn2          O7 1.922       .   S
Zn2          O9 1.922       .   S
Zn2         O13 1.922       .   S
Zn3          O5 1.942       .   S
Zn3          O8 1.922       .   S
Zn3         O11 1.922       .   S
Zn3         O14 1.922       .   S
Zn4          O5 1.942       .   S
Zn4         O12 1.922       .   S
Zn4         O15 1.922       .   S
Zn4         O16 1.922       .   S
O6          C18 1.304       .   A
O7          C19 1.304       .   A
O8          C20 1.304       .   A
O9          C18 1.304       .   A
O10         C20 1.304       .   A
O11         C19 1.304       .   A
O12         C21 1.304       .   A
O13         C22 1.304       .   A
O14         C21 1.304       .   A
O15         C22 1.304       .   A
O16         C23 1.304       .   A
O17         C23 1.304       .   A
C18        C197 1.540       .   S
C19        C249 1.540       .   S
C20        C345 1.540       .   S
C21        C217 1.540       .   S
C22        C313 1.540       .   S
C23        C281 1.540       .   S
Zn24        O28 1.942       .   S
Zn24        O29 1.922       .   S
Zn24        O33 1.922       .   S
Zn24        O40 1.922       .   S
Zn25        O28 1.942       .   S
Zn25        O30 1.922       .   S
Zn25        O32 1.922       .   S
Zn25        O36 1.922       .   S
Zn26        O28 1.942       .   S
Zn26        O31 1.922       .   S
Zn26        O34 1.922       .   S
Zn26        O37 1.922       .   S
Zn27        O28 1.942       .   S
Zn27        O35 1.922       .   S
Zn27        O38 1.922       .   S
Zn27        O39 1.922       .   S
O29         C41 1.304       .   A
O30         C42 1.304       .   A
O31         C43 1.304       .   A
O32         C41 1.304       .   A
O33         C43 1.304       .   A
O34         C42 1.304       .   A
O35         C44 1.304       .   A
O36         C45 1.304       .   A
O37         C44 1.304       .   A
O38         C45 1.304       .   A
O39         C46 1.304       .   A
O40         C46 1.304       .   A
C41        C441 1.540       .   S
C42        C185 1.540   1_655   S
C43        C389 1.540       .   S
C44        C473 1.540       .   S
C45        C409 1.540       .   S
C46        C229 1.540   1_656   S
Zn47        O51 1.942       .   S
Zn47        O52 1.922       .   S
Zn47        O56 1.922       .   S
Zn47        O63 1.922       .   S
Zn48        O51 1.942       .   S
Zn48        O53 1.922       .   S
Zn48        O55 1.922       .   S
Zn48        O59 1.922       .   S
Zn49        O51 1.942       .   S
Zn49        O54 1.922       .   S
Zn49        O57 1.922       .   S
Zn49        O60 1.922       .   S
Zn50        O51 1.942       .   S
Zn50        O58 1.922       .   S
Zn50        O61 1.922       .   S
Zn50        O62 1.922       .   S
O52         C64 1.304       .   A
O53         C65 1.304       .   A
O54         C66 1.304       .   A
O55         C64 1.304       .   A
O56         C66 1.304       .   A
O57         C65 1.304       .   A
O58         C67 1.304       .   A
O59         C68 1.304       .   A
O60         C67 1.304       .   A
O61         C68 1.304       .   A
O62         C69 1.304       .   A
O63         C69 1.304       .   A
C64        C325 1.540   1_655   S
C65        C505 1.540       .   S
C66        C569 1.540       .   S
C67        C357 1.540   1_665   S
C68        C613 1.540       .   S
C69        C537 1.540       .   S
Zn70        O74 1.942       .   S
Zn70        O75 1.922       .   S
Zn70        O79 1.922       .   S
Zn70        O86 1.922       .   S
Zn71        O74 1.942       .   S
Zn71        O76 1.922       .   S
Zn71        O78 1.922       .   S
Zn71        O82 1.922       .   S
Zn72        O74 1.942       .   S
Zn72        O77 1.922       .   S
Zn72        O80 1.922       .   S
Zn72        O83 1.922       .   S
Zn73        O74 1.942       .   S
Zn73        O81 1.922       .   S
Zn73        O84 1.922       .   S
Zn73        O85 1.922       .   S
O75         C87 1.304       .   A
O76         C88 1.304       .   A
O77         C89 1.304       .   A
O78         C87 1.304       .   A
O79         C89 1.304       .   A
O80         C88 1.304       .   A
O81         C90 1.304       .   A
O82         C91 1.304       .   A
O83         C90 1.304       .   A
O84         C91 1.304       .   A
O85         C92 1.304       .   A
O86         C92 1.304       .   A
C87        C517 1.540       .   S
C88        C453 1.540       .   S
C89        C633 1.540       .   S
C90        C549 1.540   1_556   S
C91        C665 1.540       .   S
C92        C485 1.540   1_565   S
Zn93        O97 1.942       .   S
Zn93        O98 1.922       .   S
Zn93       O102 1.922       .   S
Zn93       O109 1.922       .   S
Zn94        O97 1.942       .   S
Zn94        O99 1.922       .   S
Zn94       O101 1.922       .   S
Zn94       O105 1.922       .   S
Zn95        O97 1.942       .   S
Zn95       O100 1.922       .   S
Zn95       O103 1.922       .   S
Zn95       O106 1.922       .   S
Zn96        O97 1.942       .   S
Zn96       O104 1.922       .   S
Zn96       O107 1.922       .   S
Zn96       O108 1.922       .   S
O98        C110 1.304       .   A
O99        C111 1.304       .   A
O100       C112 1.304       .   A
O101       C110 1.304       .   A
O102       C112 1.304       .   A
O103       C111 1.304       .   A
O104       C113 1.304       .   A
O105       C114 1.304       .   A
O106       C113 1.304       .   A
O107       C114 1.304       .   A
O108       C115 1.304       .   A
O109       C115 1.304       .   A
C110       C261 1.540   1_565   S
C111       C697 1.540       .   S
C112       C793 1.540       .   S
C113       C293 1.540   1_665   S
C114       C761 1.540       .   S
C115       C729 1.540       .   S
Zn116      O120 1.942       .   S
Zn116      O121 1.922       .   S
Zn116      O125 1.922       .   S
Zn116      O132 1.922       .   S
Zn117      O120 1.942       .   S
Zn117      O122 1.922       .   S
Zn117      O124 1.922       .   S
Zn117      O128 1.922       .   S
Zn118      O120 1.942       .   S
Zn118      O123 1.922       .   S
Zn118      O126 1.922       .   S
Zn118      O129 1.922       .   S
Zn119      O120 1.942       .   S
Zn119      O127 1.922       .   S
Zn119      O130 1.922       .   S
Zn119      O131 1.922       .   S
O121       C133 1.304       .   A
O122       C134 1.304       .   A
O123       C135 1.304       .   A
O124       C133 1.304       .   A
O125       C135 1.304       .   A
O126       C134 1.304       .   A
O127       C136 1.304       .   A
O128       C137 1.304       .   A
O129       C136 1.304       .   A
O130       C137 1.304       .   A
O131       C138 1.304       .   A
O132       C138 1.304       .   A
C133       C377 1.540   1_465   S
C134       C869 1.540       .   S
C135       C709 1.540       .   S
C136       C421 1.540   1_565   S
C137       C741 1.540   1_556   S
C138       C825 1.540       .   S
Zn139      O143 1.942       .   S
Zn139      O144 1.922       .   S
Zn139      O148 1.922       .   S
Zn139      O155 1.922       .   S
Zn140      O143 1.942       .   S
Zn140      O145 1.922       .   S
Zn140      O147 1.922       .   S
Zn140      O151 1.922       .   S
Zn141      O143 1.942       .   S
Zn141      O146 1.922       .   S
Zn141      O149 1.922       .   S
Zn141      O152 1.922       .   S
Zn142      O143 1.942       .   S
Zn142      O150 1.922       .   S
Zn142      O153 1.922       .   S
Zn142      O154 1.922       .   S
O144       C156 1.304       .   A
O145       C157 1.304       .   A
O146       C158 1.304       .   A
O147       C156 1.304       .   A
O148       C158 1.304       .   A
O149       C157 1.304       .   A
O150       C159 1.304       .   A
O151       C160 1.304       .   A
O152       C159 1.304       .   A
O153       C160 1.304       .   A
O154       C161 1.304       .   A
O155       C161 1.304       .   A
C156       C581 1.540   1_455   S
C157       C773 1.540   1_545   S
C158       C921 1.540       .   S
C159       C601 1.540       .   S
C160       C889 1.540       .   S
C161       C805 1.540       .   S
Zn162      O166 1.942       .   S
Zn162      O167 1.922       .   S
Zn162      O171 1.922       .   S
Zn162      O178 1.922       .   S
Zn163      O166 1.942       .   S
Zn163      O168 1.922       .   S
Zn163      O170 1.922       .   S
Zn163      O174 1.922       .   S
Zn164      O166 1.942       .   S
Zn164      O169 1.922       .   S
Zn164      O172 1.922       .   S
Zn164      O175 1.922       .   S
Zn165      O166 1.942       .   S
Zn165      O173 1.922       .   S
Zn165      O176 1.922       .   S
Zn165      O177 1.922       .   S
O167       C179 1.304       .   A
O168       C180 1.304       .   A
O169       C181 1.304       .   A
O170       C179 1.304       .   A
O171       C181 1.304       .   A
O172       C180 1.304       .   A
O173       C182 1.304       .   A
O174       C183 1.304       .   A
O175       C182 1.304       .   A
O176       C183 1.304       .   A
O177       C184 1.304       .   A
O178       C184 1.304       .   A
C179       C645 1.540   1_455   S
C180       C837 1.540   1_545   S
C181       C901 1.540       .   S
C182       C677 1.540       .   S
C183       C933 1.540   1_556   S
C184       C857 1.540       .   S
C921       C922 0.032       .   A
C921       C926 0.031       .   A
C922       C923 0.032       .   A
C922       O952 0.032       .   A
C923       C924 0.032       .   A
C923       C928 0.026       .   A
C924       C925 0.032       .   A
C924       C927 0.039       .   A
C925       C926 0.032       .   A
C925       C931 0.035       .   A
C926       H930 0.025       .   A
C927       C932 0.037       .   A
C927       N935 0.035       .   A
C927       H941 0.025       .   A
C928       N942 0.027       .   A
C929       H949 0.025       .   A
C929       H950 0.025       .   A
C929       H951 0.025       .   A
C929       O952 0.034       .   A
C931       C943 0.036       .   A
C931       H947 0.025       .   A
C931       H948 0.025       .   A
C932       C933 0.038       .   A
C932       H938 0.025       .   A
C932       H940 0.025       .   A
C933       N934 0.034       .   A
C933       H939 0.025       .   A
N934       N935 0.035       .   A
N934       H937 0.024       .   A
N935       H936 0.024       .   A
C943       H944 0.025       .   A
C943       H945 0.025       .   A
C943       H946 0.025       .   A
C889       C890 0.032       .   A
C889       C894 0.031       .   A
C890       C891 0.032       .   A
C890       O920 0.032       .   A
C891       C892 0.032       .   A
C891       C896 0.026       .   A
C892       C893 0.032       .   A
C892       C895 0.039       .   A
C893       C894 0.032       .   A
C893       C899 0.035       .   A
C894       H898 0.025       .   A
C895       C900 0.037       .   A
C895       N903 0.035       .   A
C895       H909 0.025       .   A
C896       N910 0.027       .   A
C897       H917 0.025       .   A
C897       H918 0.025       .   A
C897       H919 0.025       .   A
C897       O920 0.034       .   A
C899       C911 0.036       .   A
C899       H915 0.025       .   A
C899       H916 0.025       .   A
C900       C901 0.038       .   A
C900       H906 0.025       .   A
C900       H908 0.025       .   A
C901       N902 0.034       .   A
C901       H907 0.025       .   A
N902       N903 0.035       .   A
N902       H905 0.024       .   A
N903       H904 0.024       .   A
C911       H912 0.025       .   A
C911       H913 0.025       .   A
C911       H914 0.025       .   A
C857       C858 0.032       .   A
C857       C862 0.031       .   A
C858       C859 0.032       .   A
C858       O888 0.032       .   A
C859       C860 0.032       .   A
C859       C864 0.026       .   A
C860       C861 0.032       .   A
C860       C863 0.039       .   A
C861       C862 0.032       .   A
C861       C867 0.035       .   A
C862       H866 0.025       .   A
C863       C868 0.037       .   A
C863       N871 0.035       .   A
C863       H877 0.025       .   A
C864       N878 0.027       .   A
C865       H885 0.025       .   A
C865       H886 0.025       .   A
C865       H887 0.025       .   A
C865       O888 0.034       .   A
C867       C879 0.036       .   A
C867       H883 0.025       .   A
C867       H884 0.025       .   A
C868       C869 0.038       .   A
C868       H874 0.025       .   A
C868       H876 0.025       .   A
C869       N870 0.034       .   A
C869       H875 0.025       .   A
N870       N871 0.035       .   A
N870       H873 0.024       .   A
N871       H872 0.024       .   A
C879       H880 0.025       .   A
C879       H881 0.025       .   A
C879       H882 0.025       .   A
C825       C826 0.032       .   A
C825       C830 0.031       .   A
C826       C827 0.032       .   A
C826       O856 0.032       .   A
C827       C828 0.032       .   A
C827       C832 0.026       .   A
C828       C829 0.032       .   A
C828       C831 0.039       .   A
C829       C830 0.032       .   A
C829       C835 0.035       .   A
C830       H834 0.025       .   A
C831       C836 0.037       .   A
C831       N839 0.035       .   A
C831       H845 0.025       .   A
C832       N846 0.027       .   A
C833       H853 0.025       .   A
C833       H854 0.025       .   A
C833       H855 0.025       .   A
C833       O856 0.034       .   A
C835       C847 0.036       .   A
C835       H851 0.025       .   A
C835       H852 0.025       .   A
C836       C837 0.038       .   A
C836       H842 0.025       .   A
C836       H844 0.025       .   A
C837       N838 0.034       .   A
C837       H843 0.025       .   A
N838       N839 0.035       .   A
N838       H841 0.024       .   A
N839       H840 0.024       .   A
C847       H848 0.025       .   A
C847       H849 0.025       .   A
C847       H850 0.025       .   A
C793       C794 0.032       .   A
C793       C798 0.031       .   A
C794       C795 0.032       .   A
C794       O824 0.032       .   A
C795       C796 0.032       .   A
C795       C800 0.026       .   A
C796       C797 0.032       .   A
C796       C799 0.039       .   A
C797       C798 0.032       .   A
C797       C803 0.035       .   A
C798       H802 0.025       .   A
C799       C804 0.037       .   A
C799       N807 0.035       .   A
C799       H813 0.025       .   A
C800       N814 0.027       .   A
C801       H821 0.025       .   A
C801       H822 0.025       .   A
C801       H823 0.025       .   A
C801       O824 0.034       .   A
C803       C815 0.036       .   A
C803       H819 0.025       .   A
C803       H820 0.025       .   A
C804       C805 0.038       .   A
C804       H810 0.025       .   A
C804       H812 0.025       .   A
C805       N806 0.034       .   A
C805       H811 0.025       .   A
N806       N807 0.035       .   A
N806       H809 0.024       .   A
N807       H808 0.024       .   A
C815       H816 0.025       .   A
C815       H817 0.025       .   A
C815       H818 0.025       .   A
C761       C762 0.032       .   A
C761       C766 0.031       .   A
C762       C763 0.032       .   A
C762       O792 0.032       .   A
C763       C764 0.032       .   A
C763       C768 0.026       .   A
C764       C765 0.032       .   A
C764       C767 0.039       .   A
C765       C766 0.032       .   A
C765       C771 0.035       .   A
C766       H770 0.025       .   A
C767       C772 0.037       .   A
C767       N775 0.035       .   A
C767       H781 0.025       .   A
C768       N782 0.027       .   A
C769       H789 0.025       .   A
C769       H790 0.025       .   A
C769       H791 0.025       .   A
C769       O792 0.034       .   A
C771       C783 0.036       .   A
C771       H787 0.025       .   A
C771       H788 0.025       .   A
C772       C773 0.038       .   A
C772       H778 0.025       .   A
C772       H780 0.025       .   A
C773       N774 0.034       .   A
C773       H779 0.025       .   A
N774       N775 0.035       .   A
N774       H777 0.024       .   A
N775       H776 0.024       .   A
C783       H784 0.025       .   A
C783       H785 0.025       .   A
C783       H786 0.025       .   A
C729       C730 0.032       .   A
C729       C734 0.031       .   A
C730       C731 0.032       .   A
C730       O760 0.032       .   A
C731       C732 0.032       .   A
C731       C736 0.026       .   A
C732       C733 0.032       .   A
C732       C735 0.039       .   A
C733       C734 0.032       .   A
C733       C739 0.035       .   A
C734       H738 0.025       .   A
C735       C740 0.037       .   A
C735       N743 0.035       .   A
C735       H749 0.025       .   A
C736       N750 0.027       .   A
C737       H757 0.025       .   A
C737       H758 0.025       .   A
C737       H759 0.025       .   A
C737       O760 0.034       .   A
C739       C751 0.036       .   A
C739       H755 0.025       .   A
C739       H756 0.025       .   A
C740       C741 0.038       .   A
C740       H746 0.025       .   A
C740       H748 0.025       .   A
C741       N742 0.034       .   A
C741       H747 0.025       .   A
N742       N743 0.035       .   A
N742       H745 0.024       .   A
N743       H744 0.024       .   A
C751       H752 0.025       .   A
C751       H753 0.025       .   A
C751       H754 0.025       .   A
C697       C698 0.032       .   A
C697       C702 0.031       .   A
C698       C699 0.032       .   A
C698       O728 0.032       .   A
C699       C700 0.032       .   A
C699       C704 0.026       .   A
C700       C701 0.032       .   A
C700       C703 0.039       .   A
C701       C702 0.032       .   A
C701       C707 0.035       .   A
C702       H706 0.025       .   A
C703       C708 0.037       .   A
C703       N711 0.035       .   A
C703       H717 0.025       .   A
C704       N718 0.027       .   A
C705       H725 0.025       .   A
C705       H726 0.025       .   A
C705       H727 0.025       .   A
C705       O728 0.034       .   A
C707       C719 0.036       .   A
C707       H723 0.025       .   A
C707       H724 0.025       .   A
C708       C709 0.038       .   A
C708       H714 0.025       .   A
C708       H716 0.025       .   A
C709       N710 0.034       .   A
C709       H715 0.025       .   A
N710       N711 0.035       .   A
N710       H713 0.024       .   A
N711       H712 0.024       .   A
C719       H720 0.025       .   A
C719       H721 0.025       .   A
C719       H722 0.025       .   A
C665       C666 0.032       .   A
C665       C670 0.031       .   A
C666       C667 0.032       .   A
C666       O696 0.032       .   A
C667       C668 0.032       .   A
C667       C672 0.026       .   A
C668       C669 0.032       .   A
C668       C671 0.039       .   A
C669       C670 0.032       .   A
C669       C675 0.035       .   A
C670       H674 0.025       .   A
C671       C676 0.037       .   A
C671       N679 0.035       .   A
C671       H685 0.025       .   A
C672       N686 0.027       .   A
C673       H693 0.025       .   A
C673       H694 0.025       .   A
C673       H695 0.025       .   A
C673       O696 0.034       .   A
C675       C687 0.036       .   A
C675       H691 0.025       .   A
C675       H692 0.025       .   A
C676       C677 0.038       .   A
C676       H682 0.025       .   A
C676       H684 0.025       .   A
C677       N678 0.034       .   A
C677       H683 0.025       .   A
N678       N679 0.035       .   A
N678       H681 0.024       .   A
N679       H680 0.024       .   A
C687       H688 0.025       .   A
C687       H689 0.025       .   A
C687       H690 0.025       .   A
C633       C634 0.032       .   A
C633       C638 0.031       .   A
C634       C635 0.032       .   A
C634       O664 0.032       .   A
C635       C636 0.032       .   A
C635       C640 0.026       .   A
C636       C637 0.032       .   A
C636       C639 0.039       .   A
C637       C638 0.032       .   A
C637       C643 0.035       .   A
C638       H642 0.025       .   A
C639       C644 0.037       .   A
C639       N647 0.035       .   A
C639       H653 0.025       .   A
C640       N654 0.027       .   A
C641       H661 0.025       .   A
C641       H662 0.025       .   A
C641       H663 0.025       .   A
C641       O664 0.034       .   A
C643       C655 0.036       .   A
C643       H659 0.025       .   A
C643       H660 0.025       .   A
C644       C645 0.038       .   A
C644       H650 0.025       .   A
C644       H652 0.025       .   A
C645       N646 0.034       .   A
C645       H651 0.025       .   A
N646       N647 0.035       .   A
N646       H649 0.024       .   A
N647       H648 0.024       .   A
C655       H656 0.025       .   A
C655       H657 0.025       .   A
C655       H658 0.025       .   A
C601       C602 0.032       .   A
C601       C606 0.031       .   A
C602       C603 0.032       .   A
C602       O632 0.032       .   A
C603       C604 0.032       .   A
C603       C608 0.026       .   A
C604       C605 0.032       .   A
C604       C607 0.039       .   A
C605       C606 0.032       .   A
C605       C611 0.035       .   A
C606       H610 0.025       .   A
C607       C612 0.037       .   A
C607       N615 0.035       .   A
C607       H621 0.025       .   A
C608       N622 0.027       .   A
C609       H629 0.025       .   A
C609       H630 0.025       .   A
C609       H631 0.025       .   A
C609       O632 0.034       .   A
C611       C623 0.036       .   A
C611       H627 0.025       .   A
C611       H628 0.025       .   A
C612       C613 0.038       .   A
C612       H618 0.025       .   A
C612       H620 0.025       .   A
C613       N614 0.034       .   A
C613       H619 0.025       .   A
N614       N615 0.035       .   A
N614       H617 0.024       .   A
N615       H616 0.024       .   A
C623       H624 0.025       .   A
C623       H625 0.025       .   A
C623       H626 0.025       .   A
C569       C570 0.032       .   A
C569       C574 0.031       .   A
C570       C571 0.032       .   A
C570       O600 0.032       .   A
C571       C572 0.032       .   A
C571       C576 0.026       .   A
C572       C573 0.032       .   A
C572       C575 0.039       .   A
C573       C574 0.032       .   A
C573       C579 0.035       .   A
C574       H578 0.025       .   A
C575       C580 0.037       .   A
C575       N583 0.035       .   A
C575       H589 0.025       .   A
C576       N590 0.027       .   A
C577       H597 0.025       .   A
C577       H598 0.025       .   A
C577       H599 0.025       .   A
C577       O600 0.034       .   A
C579       C591 0.036       .   A
C579       H595 0.025       .   A
C579       H596 0.025       .   A
C580       C581 0.038       .   A
C580       H586 0.025       .   A
C580       H588 0.025       .   A
C581       N582 0.034       .   A
C581       H587 0.025       .   A
N582       N583 0.035       .   A
N582       H585 0.024       .   A
N583       H584 0.024       .   A
C591       H592 0.025       .   A
C591       H593 0.025       .   A
C591       H594 0.025       .   A
C537       C538 0.032       .   A
C537       C542 0.031       .   A
C538       C539 0.032       .   A
C538       O568 0.032       .   A
C539       C540 0.032       .   A
C539       C544 0.026       .   A
C540       C541 0.032       .   A
C540       C543 0.039       .   A
C541       C542 0.032       .   A
C541       C547 0.035       .   A
C542       H546 0.025       .   A
C543       C548 0.037       .   A
C543       N551 0.035       .   A
C543       H557 0.025       .   A
C544       N558 0.027       .   A
C545       H565 0.025       .   A
C545       H566 0.025       .   A
C545       H567 0.025       .   A
C545       O568 0.034       .   A
C547       C559 0.036       .   A
C547       H563 0.025       .   A
C547       H564 0.025       .   A
C548       C549 0.038       .   A
C548       H554 0.025       .   A
C548       H556 0.025       .   A
C549       N550 0.034       .   A
C549       H555 0.025       .   A
N550       N551 0.035       .   A
N550       H553 0.024       .   A
N551       H552 0.024       .   A
C559       H560 0.025       .   A
C559       H561 0.025       .   A
C559       H562 0.025       .   A
C505       C506 0.032       .   A
C505       C510 0.031       .   A
C506       C507 0.032       .   A
C506       O536 0.032       .   A
C507       C508 0.032       .   A
C507       C512 0.026       .   A
C508       C509 0.032       .   A
C508       C511 0.039       .   A
C509       C510 0.032       .   A
C509       C515 0.035       .   A
C510       H514 0.025       .   A
C511       C516 0.037       .   A
C511       N519 0.035       .   A
C511       H525 0.025       .   A
C512       N526 0.027       .   A
C513       H533 0.025       .   A
C513       H534 0.025       .   A
C513       H535 0.025       .   A
C513       O536 0.034       .   A
C515       C527 0.036       .   A
C515       H531 0.025       .   A
C515       H532 0.025       .   A
C516       C517 0.038       .   A
C516       H522 0.025       .   A
C516       H524 0.025       .   A
C517       N518 0.034       .   A
C517       H523 0.025       .   A
N518       N519 0.035       .   A
N518       H521 0.024       .   A
N519       H520 0.024       .   A
C527       H528 0.025       .   A
C527       H529 0.025       .   A
C527       H530 0.025       .   A
C473       C474 0.032       .   A
C473       C478 0.031       .   A
C474       C475 0.032       .   A
C474       O504 0.032       .   A
C475       C476 0.032       .   A
C475       C480 0.026       .   A
C476       C477 0.032       .   A
C476       C479 0.039       .   A
C477       C478 0.032       .   A
C477       C483 0.035       .   A
C478       H482 0.025       .   A
C479       C484 0.037       .   A
C479       N487 0.035       .   A
C479       H493 0.025       .   A
C480       N494 0.027       .   A
C481       H501 0.025       .   A
C481       H502 0.025       .   A
C481       H503 0.025       .   A
C481       O504 0.034       .   A
C483       C495 0.036       .   A
C483       H499 0.025       .   A
C483       H500 0.025       .   A
C484       C485 0.038       .   A
C484       H490 0.025       .   A
C484       H492 0.025       .   A
C485       N486 0.034       .   A
C485       H491 0.025       .   A
N486       N487 0.035       .   A
N486       H489 0.024       .   A
N487       H488 0.024       .   A
C495       H496 0.025       .   A
C495       H497 0.025       .   A
C495       H498 0.025       .   A
C441       C442 0.032       .   A
C441       C446 0.031       .   A
C442       C443 0.032       .   A
C442       O472 0.032       .   A
C443       C444 0.032       .   A
C443       C448 0.026       .   A
C444       C445 0.032       .   A
C444       C447 0.039       .   A
C445       C446 0.032       .   A
C445       C451 0.035       .   A
C446       H450 0.025       .   A
C447       C452 0.037       .   A
C447       N455 0.035       .   A
C447       H461 0.025       .   A
C448       N462 0.027       .   A
C449       H469 0.025       .   A
C449       H470 0.025       .   A
C449       H471 0.025       .   A
C449       O472 0.034       .   A
C451       C463 0.036       .   A
C451       H467 0.025       .   A
C451       H468 0.025       .   A
C452       C453 0.038       .   A
C452       H458 0.025       .   A
C452       H460 0.025       .   A
C453       N454 0.034       .   A
C453       H459 0.025       .   A
N454       N455 0.035       .   A
N454       H457 0.024       .   A
N455       H456 0.024       .   A
C463       H464 0.025       .   A
C463       H465 0.025       .   A
C463       H466 0.025       .   A
C409       C410 0.032       .   A
C409       C414 0.031       .   A
C410       C411 0.032       .   A
C410       O440 0.032       .   A
C411       C412 0.032       .   A
C411       C416 0.026       .   A
C412       C413 0.032       .   A
C412       C415 0.039       .   A
C413       C414 0.032       .   A
C413       C419 0.035       .   A
C414       H418 0.025       .   A
C415       C420 0.037       .   A
C415       N423 0.035       .   A
C415       H429 0.025       .   A
C416       N430 0.027       .   A
C417       H437 0.025       .   A
C417       H438 0.025       .   A
C417       H439 0.025       .   A
C417       O440 0.034       .   A
C419       C431 0.036       .   A
C419       H435 0.025       .   A
C419       H436 0.025       .   A
C420       C421 0.038       .   A
C420       H426 0.025       .   A
C420       H428 0.025       .   A
C421       N422 0.034       .   A
C421       H427 0.025       .   A
N422       N423 0.035       .   A
N422       H425 0.024       .   A
N423       H424 0.024       .   A
C431       H432 0.025       .   A
C431       H433 0.025       .   A
C431       H434 0.025       .   A
C377       C378 0.032       .   A
C377       C382 0.031       .   A
C378       C379 0.032       .   A
C378       O408 0.032       .   A
C379       C380 0.032       .   A
C379       C384 0.026       .   A
C380       C381 0.032       .   A
C380       C383 0.039       .   A
C381       C382 0.032       .   A
C381       C387 0.035       .   A
C382       H386 0.025       .   A
C383       C388 0.037       .   A
C383       N391 0.035       .   A
C383       H397 0.025       .   A
C384       N398 0.027       .   A
C385       H405 0.025       .   A
C385       H406 0.025       .   A
C385       H407 0.025       .   A
C385       O408 0.034       .   A
C387       C399 0.036       .   A
C387       H403 0.025       .   A
C387       H404 0.025       .   A
C388       C389 0.038       .   A
C388       H394 0.025       .   A
C388       H396 0.025       .   A
C389       N390 0.034       .   A
C389       H395 0.025       .   A
N390       N391 0.035       .   A
N390       H393 0.024       .   A
N391       H392 0.024       .   A
C399       H400 0.025       .   A
C399       H401 0.025       .   A
C399       H402 0.025       .   A
C345       C346 0.032       .   A
C345       C350 0.031       .   A
C346       C347 0.032       .   A
C346       O376 0.032       .   A
C347       C348 0.032       .   A
C347       C352 0.026       .   A
C348       C349 0.032       .   A
C348       C351 0.039       .   A
C349       C350 0.032       .   A
C349       C355 0.035       .   A
C350       H354 0.025       .   A
C351       C356 0.037       .   A
C351       N359 0.035       .   A
C351       H365 0.025       .   A
C352       N366 0.027       .   A
C353       H373 0.025       .   A
C353       H374 0.025       .   A
C353       H375 0.025       .   A
C353       O376 0.034       .   A
C355       C367 0.036       .   A
C355       H371 0.025       .   A
C355       H372 0.025       .   A
C356       C357 0.038       .   A
C356       H362 0.025       .   A
C356       H364 0.025       .   A
C357       N358 0.034       .   A
C357       H363 0.025       .   A
N358       N359 0.035       .   A
N358       H361 0.024       .   A
N359       H360 0.024       .   A
C367       H368 0.025       .   A
C367       H369 0.025       .   A
C367       H370 0.025       .   A
C313       C314 0.032       .   A
C313       C318 0.031       .   A
C314       C315 0.032       .   A
C314       O344 0.032       .   A
C315       C316 0.032       .   A
C315       C320 0.026       .   A
C316       C317 0.032       .   A
C316       C319 0.039       .   A
C317       C318 0.032       .   A
C317       C323 0.035       .   A
C318       H322 0.025       .   A
C319       C324 0.037       .   A
C319       N327 0.035       .   A
C319       H333 0.025       .   A
C320       N334 0.027       .   A
C321       H341 0.025       .   A
C321       H342 0.025       .   A
C321       H343 0.025       .   A
C321       O344 0.034       .   A
C323       C335 0.036       .   A
C323       H339 0.025       .   A
C323       H340 0.025       .   A
C324       C325 0.038       .   A
C324       H330 0.025       .   A
C324       H332 0.025       .   A
C325       N326 0.034       .   A
C325       H331 0.025       .   A
N326       N327 0.035       .   A
N326       H329 0.024       .   A
N327       H328 0.024       .   A
C335       H336 0.025       .   A
C335       H337 0.025       .   A
C335       H338 0.025       .   A
C281       C282 0.032       .   A
C281       C286 0.031       .   A
C282       C283 0.032       .   A
C282       O312 0.032       .   A
C283       C284 0.032       .   A
C283       C288 0.026       .   A
C284       C285 0.032       .   A
C284       C287 0.039       .   A
C285       C286 0.032       .   A
C285       C291 0.035       .   A
C286       H290 0.025       .   A
C287       C292 0.037       .   A
C287       N295 0.035       .   A
C287       H301 0.025       .   A
C288       N302 0.027       .   A
C289       H309 0.025       .   A
C289       H310 0.025       .   A
C289       H311 0.025       .   A
C289       O312 0.034       .   A
C291       C303 0.036       .   A
C291       H307 0.025       .   A
C291       H308 0.025       .   A
C292       C293 0.038       .   A
C292       H298 0.025       .   A
C292       H300 0.025       .   A
C293       N294 0.034       .   A
C293       H299 0.025       .   A
N294       N295 0.035       .   A
N294       H297 0.024       .   A
N295       H296 0.024       .   A
C303       H304 0.025       .   A
C303       H305 0.025       .   A
C303       H306 0.025       .   A
C249       C250 0.032       .   A
C249       C254 0.031       .   A
C250       C251 0.032       .   A
C250       O280 0.032       .   A
C251       C252 0.032       .   A
C251       C256 0.026       .   A
C252       C253 0.032       .   A
C252       C255 0.039       .   A
C253       C254 0.032       .   A
C253       C259 0.035       .   A
C254       H258 0.025       .   A
C255       C260 0.037       .   A
C255       N263 0.035       .   A
C255       H269 0.025       .   A
C256       N270 0.027       .   A
C257       H277 0.025       .   A
C257       H278 0.025       .   A
C257       H279 0.025       .   A
C257       O280 0.034       .   A
C259       C271 0.036       .   A
C259       H275 0.025       .   A
C259       H276 0.025       .   A
C260       C261 0.038       .   A
C260       H266 0.025       .   A
C260       H268 0.025       .   A
C261       N262 0.034       .   A
C261       H267 0.025       .   A
N262       N263 0.035       .   A
N262       H265 0.024       .   A
N263       H264 0.024       .   A
C271       H272 0.025       .   A
C271       H273 0.025       .   A
C271       H274 0.025       .   A
C217       C218 0.032       .   A
C217       C222 0.031       .   A
C218       C219 0.032       .   A
C218       O248 0.032       .   A
C219       C220 0.032       .   A
C219       C224 0.026       .   A
C220       C221 0.032       .   A
C220       C223 0.039       .   A
C221       C222 0.032       .   A
C221       C227 0.035       .   A
C222       H226 0.025       .   A
C223       C228 0.037       .   A
C223       N231 0.035       .   A
C223       H237 0.025       .   A
C224       N238 0.027       .   A
C225       H245 0.025       .   A
C225       H246 0.025       .   A
C225       H247 0.025       .   A
C225       O248 0.034       .   A
C227       C239 0.036       .   A
C227       H243 0.025       .   A
C227       H244 0.025       .   A
C228       C229 0.038       .   A
C228       H234 0.025       .   A
C228       H236 0.025       .   A
C229       N230 0.034       .   A
C229       H235 0.025       .   A
N230       N231 0.035       .   A
N230       H233 0.024       .   A
N231       H232 0.024       .   A
C239       H240 0.025       .   A
C239       H241 0.025       .   A
C239       H242 0.025       .   A
C185       C186 0.032       .   A
C185       C190 0.031       .   A
C186       C187 0.032       .   A
C186       O216 0.032       .   A
C187       C188 0.032       .   A
C187       C192 0.026       .   A
C188       C189 0.032       .   A
C188       C191 0.039       .   A
C189       C190 0.032       .   A
C189       C195 0.035       .   A
C190       H194 0.025       .   A
C191       C196 0.037       .   A
C191       N199 0.035       .   A
C191       H205 0.025       .   A
C192       N206 0.027       .   A
C193       H213 0.025       .   A
C193       H214 0.025       .   A
C193       H215 0.025       .   A
C193       O216 0.034       .   A
C195       C207 0.036       .   A
C195       H211 0.025       .   A
C195       H212 0.025       .   A
C196       C197 0.038       .   A
C196       H202 0.025       .   A
C196       H204 0.025       .   A
C197       N198 0.034       .   A
C197       H203 0.025       .   A
N198       N199 0.035       .   A
N198       H201 0.024       .   A
N199       H200 0.024       .   A
C207       H208 0.025       .   A
C207       H209 0.025       .   A
C207       H210 0.025       .   A
