data_pcu_v1-6c_Zn_1_Ch_1-4_fer_tobacco
_audit_creation_date              2021-04-07
_audit_creation_method            'tobacco_3.0'
_symmetry_space_group_name_H-M    'P1'
_symmetry_Int_Tables_number       1
_symmetry_cell_setting            triclinic
loop_
_symmetry_equiv_pos_as_xyz
  x,y,z
_cell_length_a                    57.969781552565706
_cell_length_b                    57.969781552565706
_cell_length_c                    57.969781552565706
_cell_angle_alpha                 90.0
_cell_angle_beta                  90.0
_cell_angle_gamma                 90.0
loop_
_atom_site_label
_atom_site_type_symbol
_atom_site_fract_x
_atom_site_fract_y
_atom_site_fract_z
_atom_site_charge
Zn1       Zn   -0.0193411114   -0.0193411114    0.0193411114          1.4972
Zn2       Zn    0.0193411114    0.0193411114    0.0193411114          1.4936
Zn3       Zn    0.0193411114   -0.0193411114   -0.0193411114          1.4911
Zn4       Zn   -0.0193411114    0.0193411114   -0.0193411114          1.4948
O5         O    0.0000000000    0.0000000000    0.0000000000         -1.8376
O6         O   -0.0142143023   -0.0142143023    0.0516924494         -0.7439
O7         O    0.0516924494    0.0142143023    0.0142143023         -0.7421
O8         O    0.0142143023   -0.0516924494   -0.0142143023         -0.7373
O9         O    0.0142143023    0.0142143023    0.0516924494         -0.7441
O10        O   -0.0142143023   -0.0516924494    0.0142143023         -0.7401
O11        O    0.0516924494   -0.0142143023   -0.0142143023         -0.7459
O12        O   -0.0142143023    0.0142143023   -0.0516924494         -0.7398
O13        O    0.0142143023    0.0516924494    0.0142143023         -0.7474
O14        O    0.0142143023   -0.0142143023   -0.0516924494         -0.7413
O15        O   -0.0142143023    0.0516924494   -0.0142143023          -0.746
O16        O   -0.0516924494    0.0142143023   -0.0142143023         -0.7451
O17        O   -0.0516924494   -0.0142143023    0.0142143023         -0.7429
C18        C   -0.0000000000   -0.0000000000    0.0618046145           0.775
C19        C    0.0618046145   -0.0000000000   -0.0000000000          0.7799
C20        C   -0.0000000000   -0.0618046145    0.0000000000          0.7695
C21        C    0.0000000000    0.0000000000   -0.0618046145          0.7732
C22        C    0.0000000000    0.0618046145   -0.0000000000          0.7846
C23        C   -0.0618046145    0.0000000000    0.0000000000          0.7751
Zn24      Zn    1.0193411114    0.0193411114    0.4806588886          1.4972
Zn25      Zn    0.9806588886   -0.0193411114    0.4806588886          1.4936
Zn26      Zn    1.0193411114   -0.0193411114    0.5193411114          1.4911
Zn27      Zn    0.9806588886    0.0193411114    0.5193411114          1.4948
O28        O    1.0000000000    0.0000000000    0.5000000000         -1.8376
O29        O    1.0142143023    0.0142143023    0.4483075506         -0.7439
O30        O    0.9857856977   -0.0516924494    0.4857856977         -0.7421
O31        O    1.0516924494   -0.0142143023    0.5142143023         -0.7373
O32        O    0.9857856977   -0.0142143023    0.4483075506         -0.7441
O33        O    1.0516924494    0.0142143023    0.4857856977         -0.7401
O34        O    1.0142143023   -0.0516924494    0.5142143023         -0.7459
O35        O    0.9857856977    0.0142143023    0.5516924494         -0.7398
O36        O    0.9483075506   -0.0142143023    0.4857856977         -0.7474
O37        O    1.0142143023   -0.0142143023    0.5516924494         -0.7413
O38        O    0.9483075506    0.0142143023    0.5142143023          -0.746
O39        O    0.9857856977    0.0516924494    0.5142143023         -0.7451
O40        O    1.0142143023    0.0516924494    0.4857856977         -0.7429
C41        C    1.0000000000    0.0000000000    0.4381953855           0.775
C42        C    1.0000000000   -0.0618046145    0.5000000000          0.7799
C43        C    1.0618046145    0.0000000000    0.5000000000          0.7695
C44        C    1.0000000000    0.0000000000    0.5618046145          0.7732
C45        C    0.9381953855    0.0000000000    0.5000000000          0.7846
C46        C    1.0000000000    0.0618046145    0.5000000000          0.7751
Zn47      Zn    1.0193411114    0.4806588886   -0.0193411114          1.4972
Zn48      Zn    0.9806588886    0.4806588886    0.0193411114          1.4936
Zn49      Zn    1.0193411114    0.5193411114    0.0193411114          1.4911
Zn50      Zn    0.9806588886    0.5193411114   -0.0193411114          1.4948
O51        O    1.0000000000    0.5000000000    0.0000000000         -1.8376
O52        O    1.0142143023    0.4483075506   -0.0142143023         -0.7439
O53        O    0.9857856977    0.4857856977    0.0516924494         -0.7421
O54        O    1.0516924494    0.5142143023    0.0142143023         -0.7373
O55        O    0.9857856977    0.4483075506    0.0142143023         -0.7441
O56        O    1.0516924494    0.4857856977   -0.0142143023         -0.7401
O57        O    1.0142143023    0.5142143023    0.0516924494         -0.7459
O58        O    0.9857856977    0.5516924494   -0.0142143023         -0.7398
O59        O    0.9483075506    0.4857856977    0.0142143023         -0.7474
O60        O    1.0142143023    0.5516924494    0.0142143023         -0.7413
O61        O    0.9483075506    0.5142143023   -0.0142143023          -0.746
O62        O    0.9857856977    0.5142143023   -0.0516924494         -0.7451
O63        O    1.0142143023    0.4857856977   -0.0516924494         -0.7429
C64        C    1.0000000000    0.4381953855    0.0000000000           0.775
C65        C    1.0000000000    0.5000000000    0.0618046145          0.7799
C66        C    1.0618046145    0.5000000000    0.0000000000          0.7695
C67        C    1.0000000000    0.5618046145    0.0000000000          0.7732
C68        C    0.9381953855    0.5000000000    0.0000000000          0.7846
C69        C    1.0000000000    0.5000000000   -0.0618046145          0.7751
Zn70      Zn    0.9806588886    0.4806588886    0.4806588886          1.4972
Zn71      Zn    1.0193411114    0.4806588886    0.5193411114          1.4936
Zn72      Zn    1.0193411114    0.5193411114    0.4806588886          1.4911
Zn73      Zn    0.9806588886    0.5193411114    0.5193411114          1.4948
O74        O    1.0000000000    0.5000000000    0.5000000000         -1.8376
O75        O    0.9857856977    0.4483075506    0.4857856977         -0.7439
O76        O    1.0516924494    0.4857856977    0.5142143023         -0.7421
O77        O    1.0142143023    0.5142143023    0.4483075506         -0.7373
O78        O    1.0142143023    0.4483075506    0.5142143023         -0.7441
O79        O    0.9857856977    0.4857856977    0.4483075506         -0.7401
O80        O    1.0516924494    0.5142143023    0.4857856977         -0.7459
O81        O    0.9857856977    0.5516924494    0.5142143023         -0.7398
O82        O    1.0142143023    0.4857856977    0.5516924494         -0.7474
O83        O    1.0142143023    0.5516924494    0.4857856977         -0.7413
O84        O    0.9857856977    0.5142143023    0.5516924494          -0.746
O85        O    0.9483075506    0.5142143023    0.5142143023         -0.7451
O86        O    0.9483075506    0.4857856977    0.4857856977         -0.7429
C87        C    1.0000000000    0.4381953855    0.5000000000           0.775
C88        C    1.0618046145    0.5000000000    0.5000000000          0.7799
C89        C    1.0000000000    0.5000000000    0.4381953855          0.7695
C90        C    1.0000000000    0.5618046145    0.5000000000          0.7732
C91        C    1.0000000000    0.5000000000    0.5618046145          0.7846
C92        C    0.9381953855    0.5000000000    0.5000000000          0.7751
Zn93      Zn    0.4806588886    0.9806588886   -0.0193411114          1.4972
Zn94      Zn    0.4806588886    1.0193411114    0.0193411114          1.4936
Zn95      Zn    0.5193411114    0.9806588886    0.0193411114          1.4911
Zn96      Zn    0.5193411114    1.0193411114   -0.0193411114          1.4948
O97        O    0.5000000000    1.0000000000    0.0000000000         -1.8376
O98        O    0.4483075506    0.9857856977   -0.0142143023         -0.7439
O99        O    0.4857856977    1.0142143023    0.0516924494         -0.7421
O100       O    0.5142143023    0.9483075506    0.0142143023         -0.7373
O101       O    0.4483075506    1.0142143023    0.0142143023         -0.7441
O102       O    0.4857856977    0.9483075506   -0.0142143023         -0.7401
O103       O    0.5142143023    0.9857856977    0.0516924494         -0.7459
O104       O    0.5516924494    1.0142143023   -0.0142143023         -0.7398
O105       O    0.4857856977    1.0516924494    0.0142143023         -0.7474
O106       O    0.5516924494    0.9857856977    0.0142143023         -0.7413
O107       O    0.5142143023    1.0516924494   -0.0142143023          -0.746
O108       O    0.5142143023    1.0142143023   -0.0516924494         -0.7451
O109       O    0.4857856977    0.9857856977   -0.0516924494         -0.7429
C110       C    0.4381953855    1.0000000000    0.0000000000           0.775
C111       C    0.5000000000    1.0000000000    0.0618046145          0.7799
C112       C    0.5000000000    0.9381953855    0.0000000000          0.7695
C113       C    0.5618046145    1.0000000000    0.0000000000          0.7732
C114       C    0.5000000000    1.0618046145    0.0000000000          0.7846
C115       C    0.5000000000    1.0000000000   -0.0618046145          0.7751
Zn116     Zn    0.4806588886    0.9806588886    0.4806588886          1.4972
Zn117     Zn    0.4806588886    1.0193411114    0.5193411114          1.4936
Zn118     Zn    0.5193411114    0.9806588886    0.5193411114          1.4911
Zn119     Zn    0.5193411114    1.0193411114    0.4806588886          1.4948
O120       O    0.5000000000    1.0000000000    0.5000000000         -1.8376
O121       O    0.4483075506    0.9857856977    0.4857856977         -0.7439
O122       O    0.4857856977    1.0142143023    0.5516924494         -0.7421
O123       O    0.5142143023    0.9483075506    0.5142143023         -0.7373
O124       O    0.4483075506    1.0142143023    0.5142143023         -0.7441
O125       O    0.4857856977    0.9483075506    0.4857856977         -0.7401
O126       O    0.5142143023    0.9857856977    0.5516924494         -0.7459
O127       O    0.5516924494    1.0142143023    0.4857856977         -0.7398
O128       O    0.4857856977    1.0516924494    0.5142143023         -0.7474
O129       O    0.5516924494    0.9857856977    0.5142143023         -0.7413
O130       O    0.5142143023    1.0516924494    0.4857856977          -0.746
O131       O    0.5142143023    1.0142143023    0.4483075506         -0.7451
O132       O    0.4857856977    0.9857856977    0.4483075506         -0.7429
C133       C    0.4381953855    1.0000000000    0.5000000000           0.775
C134       C    0.5000000000    1.0000000000    0.5618046145          0.7799
C135       C    0.5000000000    0.9381953855    0.5000000000          0.7695
C136       C    0.5618046145    1.0000000000    0.5000000000          0.7732
C137       C    0.5000000000    1.0618046145    0.5000000000          0.7846
C138       C    0.5000000000    1.0000000000    0.4381953855          0.7751
Zn139     Zn    0.4806588886    0.5193411114   -0.0193411114          1.4972
Zn140     Zn    0.4806588886    0.4806588886    0.0193411114          1.4936
Zn141     Zn    0.5193411114    0.4806588886   -0.0193411114          1.4911
Zn142     Zn    0.5193411114    0.5193411114    0.0193411114          1.4948
O143       O    0.5000000000    0.5000000000    0.0000000000         -1.8376
O144       O    0.4483075506    0.5142143023   -0.0142143023         -0.7439
O145       O    0.4857856977    0.4483075506    0.0142143023         -0.7421
O146       O    0.5142143023    0.4857856977   -0.0516924494         -0.7373
O147       O    0.4483075506    0.4857856977    0.0142143023         -0.7441
O148       O    0.4857856977    0.5142143023   -0.0516924494         -0.7401
O149       O    0.5142143023    0.4483075506   -0.0142143023         -0.7459
O150       O    0.5516924494    0.5142143023    0.0142143023         -0.7398
O151       O    0.4857856977    0.4857856977    0.0516924494         -0.7474
O152       O    0.5516924494    0.4857856977   -0.0142143023         -0.7413
O153       O    0.5142143023    0.5142143023    0.0516924494          -0.746
O154       O    0.5142143023    0.5516924494    0.0142143023         -0.7451
O155       O    0.4857856977    0.5516924494   -0.0142143023         -0.7429
C156       C    0.4381953855    0.5000000000    0.0000000000           0.775
C157       C    0.5000000000    0.4381953855    0.0000000000          0.7799
C158       C    0.5000000000    0.5000000000   -0.0618046145          0.7695
C159       C    0.5618046145    0.5000000000    0.0000000000          0.7732
C160       C    0.5000000000    0.5000000000    0.0618046145          0.7846
C161       C    0.5000000000    0.5618046145    0.0000000000          0.7751
Zn162     Zn    0.4806588886    0.5193411114    0.4806588886          1.4972
Zn163     Zn    0.4806588886    0.4806588886    0.5193411114          1.4936
Zn164     Zn    0.5193411114    0.4806588886    0.4806588886          1.4911
Zn165     Zn    0.5193411114    0.5193411114    0.5193411114          1.4948
O166       O    0.5000000000    0.5000000000    0.5000000000         -1.8376
O167       O    0.4483075506    0.5142143023    0.4857856977         -0.7439
O168       O    0.4857856977    0.4483075506    0.5142143023         -0.7421
O169       O    0.5142143023    0.4857856977    0.4483075506         -0.7373
O170       O    0.4483075506    0.4857856977    0.5142143023         -0.7441
O171       O    0.4857856977    0.5142143023    0.4483075506         -0.7401
O172       O    0.5142143023    0.4483075506    0.4857856977         -0.7459
O173       O    0.5516924494    0.5142143023    0.5142143023         -0.7398
O174       O    0.4857856977    0.4857856977    0.5516924494         -0.7474
O175       O    0.5516924494    0.4857856977    0.4857856977         -0.7413
O176       O    0.5142143023    0.5142143023    0.5516924494          -0.746
O177       O    0.5142143023    0.5516924494    0.5142143023         -0.7451
O178       O    0.4857856977    0.5516924494    0.4857856977         -0.7429
C179       C    0.4381953855    0.5000000000    0.5000000000           0.775
C180       C    0.5000000000    0.4381953855    0.5000000000          0.7799
C181       C    0.5000000000    0.5000000000    0.4381953855          0.7695
C182       C    0.5618046145    0.5000000000    0.5000000000          0.7732
C183       C    0.5000000000    0.5000000000    0.5618046145          0.7846
C184       C    0.5000000000    0.5618046145    0.5000000000          0.7751
C1588      C    0.5000000000    0.5000000000   -0.0883701795          0.0007
C1589      C    0.5148727477    0.5086250967   -0.0953333286          0.0007
C1590      C    0.5160648225    0.5093164122   -0.1151353614          0.0007
C1591      C    0.5025671156    0.5014887377   -0.1265520381          0.0007
C1592      C    0.4876775042    0.4928538613   -0.1175190789          0.0007
C1593      C    0.4861559283    0.4919714595   -0.0962275760          0.0007
C1594      C    0.5028672599    0.5016627993   -0.1454746467          0.0007
H1595      H    0.5291458988    0.5169024716   -0.1255876592          0.0007
H1596      H    0.5267036720    0.5154861602   -0.0850706642          0.0007
C1597      C    0.4643780607    0.4793419025   -0.0904925505          0.0007
C1598      C    0.4725915398    0.4841051147   -0.1297587963          0.0007
C1599      C    0.4554103646    0.4741413003   -0.1224910893          0.0007
C1600      C    0.4542959311    0.4734950110   -0.0988203271          0.0007
H1601      H    0.4743722928    0.4851378201   -0.1482770494          0.0007
H1602      H    0.4364581787    0.4631504303   -0.1298115602          0.0007
H1603      H    0.4381797292    0.4641488026   -0.0872469052          0.0007
Br1604    Br    0.4616252368    0.4777454678   -0.0913282920          0.0007
O1605      O    0.4899107474    0.4941489776   -0.1545565058          0.0007
C1606      C    0.5097414464    0.5056493204   -0.1689834718          0.0007
C1607      C    0.5146089292    0.5084721014   -0.1526147459          0.0007
C1608      C    0.4960134243    0.4976880801   -0.1896787362          0.0007
H1609      H    0.5319331003    0.5185188429   -0.1512459599          0.0007
H1610      H    0.5181092684    0.5105020400   -0.1865984621          0.0007
H1611      H    0.5318950707    0.5184967885   -0.1683529419          0.0007
H1612      H    0.5212175887    0.5123046365   -0.1305494185          0.0007
H1613      H    0.4730879206    0.4843929789   -0.1691279449          0.0007
C1614      C    0.4956459786    0.4974749887   -0.1694987061          0.0007
H1615      H    0.4875460333    0.4927776179   -0.1340082757          0.0007
C1616      C    0.5138241888    0.5080170099   -0.2094345489          0.0007
N1617      N    0.5141916345    0.5082301013   -0.2296145790          0.0007
C1618      C    0.4971016933    0.4983191959   -0.2502036567          0.0007
C1619      C    0.4792773334    0.4879823818   -0.2304483904          0.0007
C1620      C    0.4789245767    0.4877778089   -0.2102664588          0.0007
C1621      C    0.4974702720    0.4985329443   -0.2703836414          0.0007
H1622      H    0.5309283463    0.5179361597   -0.1888278534          0.0007
H1623      H    0.4610991232    0.4774403607   -0.1905125476          0.0007
H1624      H    0.4621873529    0.4780714536   -0.2510361584          0.0007
N1625      N    0.5152799035    0.5088612171   -0.2901394995          0.0007
C1626      C    0.5156484822    0.5090749655   -0.3103194841          0.0007
C1627      C    0.4985443246    0.4991558156   -0.3309261795          0.0007
C1629      C    0.4807330482    0.4888265890   -0.3111533410          0.0007
C1630      C    0.4789683319    0.4878031837   -0.2941869815          0.0007
H1631      H    0.4524162142    0.4724049138   -0.2855885435          0.0007
H1632      H    0.4536941723    0.4731460353   -0.3221293588          0.0007
H1633      H    0.5429184853    0.5248895560   -0.3229120380          0.0007
C1634      C    0.5152799035    0.5088612171   -0.2901394995          0.0007
N1635      N    0.5156484822    0.5090749655   -0.3103194841          0.0007
C1636      C    0.4985443246    0.4991558156   -0.3309261795          0.0007
C1637      C    0.4807330482    0.4888265890   -0.3111533410          0.0007
C1638      C    0.4803660750    0.4886137717   -0.2909890271          0.0007
H1640      H    0.5323698447    0.5187721224   -0.2695504218          0.0007
H1641      H    0.4625547986    0.4782845450   -0.2712161886          0.0007
H1642      H    0.4636435796    0.4789159577   -0.3317581350          0.0007
N1643      N    0.5167214019    0.5096971798   -0.3708620678          0.0007
C1644      C    0.5170899805    0.5099109282   -0.3910420525          0.0007
C1645      C    0.5000000000    0.5000000000   -0.4116298205          0.0007
C1646      C    0.4821745465    0.4896625517   -0.3918759094          0.0007
C1647      C    0.4804251796    0.4886480480   -0.3748918866          0.0007
H1648      H    0.4538572006    0.4732405797   -0.3662940859          0.0007
H1649      H    0.4551498870    0.4739902425   -0.4028343095          0.0007
H1650      H    0.5443741607    0.5257337403   -0.4036156790          0.0007
C1527      C    0.5000000000    0.5000000000    0.0883701795          0.0007
C1528      C    0.5000000000    0.5171927578    0.0953333286          0.0007
C1529      C    0.5000000000    0.5185707851    0.1151353614          0.0007
C1530      C    0.5000000000    0.5029675617    0.1265520381          0.0007
C1531      C    0.5000000000    0.4857553097    0.1175190789          0.0007
C1532      C    0.5000000000    0.4839963821    0.0962275760          0.0007
C1533      C    0.5000000000    0.5033145257    0.1454746467          0.0007
H1534      H    0.5000000000    0.5336923874    0.1255876592          0.0007
H1535      H    0.5000000000    0.5308691959    0.0850706642          0.0007
C1536      C    0.5000000000    0.4588213702    0.0904925505          0.0007
C1537      C    0.5000000000    0.4683160755    0.1297587963          0.0007
C1538      C    0.5000000000    0.4484547972    0.1224910893          0.0007
C1539      C    0.5000000000    0.4471665224    0.0988203271          0.0007
H1540      H    0.5000000000    0.4703746094    0.1482770494          0.0007
H1541      H    0.5000000000    0.4265462470    0.1298115602          0.0007
H1542      H    0.5000000000    0.4285363432    0.0872469052          0.0007
Br1543    Br    0.5000000000    0.4556391315    0.0913282920          0.0007
O1544      O    0.5000000000    0.4883369180    0.1545565058          0.0007
C1545      C    0.5000000000    0.5112610212    0.1689834718          0.0007
C1546      C    0.5000000000    0.5168877860    0.1526147459          0.0007
C1547      C    0.5000000000    0.4953915556    0.1896787362          0.0007
H1548      H    0.5000000000    0.5369143663    0.1512459599          0.0007
H1549      H    0.5000000000    0.5209341455    0.1865984621          0.0007
H1550      H    0.5000000000    0.5368704044    0.1683529419          0.0007
H1551      H    0.5000000000    0.5245273348    0.1305494185          0.0007
H1552      H    0.5000000000    0.4688898871    0.1691279449          0.0007
C1553      C    0.5000000000    0.4949667918    0.1694987061          0.0007
H1554      H    0.5000000000    0.4856033306    0.1340082757          0.0007
C1555      C    0.5000000000    0.5159806334    0.2094345489          0.0007
N1556      N    0.5000000000    0.5164053972    0.2296145790          0.0007
C1557      C    0.5000000000    0.4966495845    0.2502036567          0.0007
C1558      C    0.5000000000    0.4760447906    0.2304483904          0.0007
C1559      C    0.5000000000    0.4756370071    0.2102664588          0.0007
C1560      C    0.5000000000    0.4970756580    0.2703836414          0.0007
H1561      H    0.5000000000    0.5357528801    0.1888278534          0.0007
H1562      H    0.5000000000    0.4550309490    0.1905125476          0.0007
H1563      H    0.5000000000    0.4562889324    0.2510361584          0.0007
N1564      N    0.5000000000    0.5176634261    0.2901394995          0.0007
C1565      C    0.5000000000    0.5180894995    0.3103194841          0.0007
C1566      C    0.5000000000    0.4983172528    0.3309261795          0.0007
C1568      C    0.5000000000    0.4777275833    0.3111533410          0.0007
C1569      C    0.5000000000    0.4756875877    0.2941869815          0.0007
H1570      H    0.5000000000    0.4449935872    0.2855885435          0.0007
H1571      H    0.5000000000    0.4464708948    0.3221293588          0.0007
H1572      H    0.5000000000    0.5496133689    0.3229120380          0.0007
C1573      C    0.5000000000    0.5176634261    0.2901394995          0.0007
N1574      N    0.5000000000    0.5180894995    0.3103194841          0.0007
C1575      C    0.5000000000    0.4983172528    0.3309261795          0.0007
C1576      C    0.5000000000    0.4777275833    0.3111533410          0.0007
C1577      C    0.5000000000    0.4773033658    0.2909890271          0.0007
H1579      H    0.5000000000    0.5374192387    0.2695504218          0.0007
H1580      H    0.5000000000    0.4567136962    0.2712161886          0.0007
H1581      H    0.5000000000    0.4579723169    0.3317581350          0.0007
N1582      N    0.5000000000    0.5193297847    0.3708620678          0.0007
C1583      C    0.5000000000    0.5197558582    0.3910420525          0.0007
C1584      C    0.5000000000    0.5000000000    0.4116298205          0.0007
C1585      C    0.5000000000    0.4793939419    0.3918759094          0.0007
C1586      C    0.5000000000    0.4773716901    0.3748918866          0.0007
H1587      H    0.5000000000    0.4466593540    0.3662940859          0.0007
H1588      H    0.5000000000    0.4481536875    0.4028343095          0.0007
H1589      H    0.5000000000    0.5512961161    0.4036156790          0.0007
C1466      C    0.5000000000    0.9116298205    0.5000000000          0.0007
C1467      C    0.5117129354    0.9046666714    0.4874143707          0.0007
C1468      C    0.5126517461    0.8848646386    0.4864056122          0.0007
C1469      C    0.5020217152    0.8734479619    0.4978276532          0.0007
C1470      C    0.4902954989    0.8824809211    0.5104275529          0.0007
C1471      C    0.4890971917    0.9037724240    0.5117151422          0.0007
C1472      C    0.5022580918    0.8545253533    0.4975736649          0.0007
H1473      H    0.5229536623    0.8744123408    0.4753361326          0.0007
H1474      H    0.5210303025    0.9149293358    0.4774027959          0.0007
C1475      C    0.4719461743    0.9095074495    0.5301440279          0.0007
C1476      C    0.4784146462    0.8702412037    0.5231936105          0.0007
C1477      C    0.4648837239    0.8775089107    0.5377326793          0.0007
C1478      C    0.4640060590    0.9011796729    0.5386757362          0.0007
H1479      H    0.4798170666    0.8517229506    0.5216867002          0.0007
H1480      H    0.4499580536    0.8701884398    0.5537704142          0.0007
H1481      H    0.4513138495    0.9127530948    0.5523136023          0.0007
Br1482    Br    0.4697782059    0.9086717080    0.5324735248          0.0007
O1483      O    0.4920542750    0.8454434942    0.5085377360          0.0007
C1484      C    0.5076718125    0.8310165282    0.4917565850          0.0007
C1485      C    0.5115051668    0.8473852541    0.4876376195          0.0007
C1486      C    0.4968603983    0.8103212638    0.5033735235          0.0007
H1487      H    0.5251487046    0.8487540401    0.4729775446          0.0007
H1488      H    0.5142618361    0.8134015379    0.4846755594          0.0007
H1489      H    0.5251187546    0.8316470581    0.4730097261          0.0007
H1490      H    0.5167097734    0.8694505815    0.4820452340          0.0007
H1491      H    0.4788055676    0.8308720551    0.5227735628          0.0007
C1492      C    0.4965710189    0.8305012939    0.5036844637          0.0007
H1493      H    0.4901919599    0.8659917243    0.5105388063          0.0007
C1494      C    0.5108871496    0.7905654511    0.4883016832          0.0007
N1495      N    0.5111765290    0.7703854210    0.4879907430          0.0007
C1496      C    0.4977174575    0.7497963433    0.5024526075          0.0007
C1497      C    0.4836799993    0.7695516096    0.5175359526          0.0007
C1498      C    0.4834021880    0.7897335412    0.5178344627          0.0007
C1499      C    0.4980077292    0.7296163586    0.5021407086          0.0007
H1500      H    0.5243574172    0.8111721466    0.4738277884          0.0007
H1501      H    0.4693638685    0.8094874524    0.5329187331          0.0007
H1502      H    0.4702208967    0.7489638416    0.5319978505          0.0007
N1503      N    0.5120335882    0.7098605005    0.4870698270          0.0007
C1504      C    0.5123238599    0.6896805159    0.4867579281          0.0007
C1505      C    0.4988535924    0.6690738205    0.5012318229          0.0007
C1507      C    0.4848264379    0.6888466590    0.5163040964          0.0007
C1508      C    0.4834366472    0.7058130185    0.5177974361          0.0007
H1509      H    0.4625257002    0.7144114565    0.5402663918          0.0007
H1510      H    0.4635321478    0.6778706412    0.5391849570          0.0007
H1511      H    0.5338001728    0.6770879620    0.4636814828          0.0007
C1512      C    0.5120335882    0.7098605005    0.4870698270          0.0007
N1513      N    0.5123238599    0.6896805159    0.4867579281          0.0007
C1514      C    0.4988535924    0.6690738205    0.5012318229          0.0007
C1515      C    0.4848264379    0.6888466590    0.5163040964          0.0007
C1516      C    0.4845374306    0.7090109729    0.5166146367          0.0007
H1518      H    0.5254926598    0.7304495782    0.4726079624          0.0007
H1519      H    0.4705102762    0.7287838114    0.5316869103          0.0007
H1520      H    0.4713677385    0.6682418650    0.5307655611          0.0007
N1521      N    0.5131688308    0.6291379322    0.4858500011          0.0007
C1522      C    0.5134591025    0.6089579475    0.4855381021          0.0007
C1523      C    0.5000000000    0.5883701795    0.5000000000          0.0007
C1524      C    0.4859616805    0.6081240906    0.5150842705          0.0007
C1525      C    0.4845839781    0.6251081134    0.5165646212          0.0007
H1526      H    0.4636605396    0.6337059141    0.5390469991          0.0007
H1527      H    0.4646785864    0.5971656905    0.5379531008          0.0007
H1528      H    0.5349465805    0.5963843210    0.4624496599          0.0007
C1405      C    0.5000000000    1.0883701795    0.5000000000          0.0007
C1406      C    0.4913170561    1.0953333286    0.5148390500          0.0007
C1407      C    0.4906211041    1.1151353614    0.5160284238          0.0007
C1408      C    0.4985012775    1.1265520381    0.5025612992          0.0007
C1409      C    0.5071940667    1.1175190789    0.4877054238          0.0007
C1410      C    0.5080823867    1.0962275760    0.4861872953          0.0007
C1411      C    0.4983260486    1.1454746467    0.5028607634          0.0007
H1412      H    0.4829841661    1.1255876592    0.5290798618          0.0007
H1413      H    0.4844099766    1.0850706642    0.5266431684          0.0007
C1414      C    0.5207966481    1.0904925505    0.4644587707          0.0007
C1415      C    0.5160014899    1.1297587963    0.4726536403          0.0007
C1416      C    0.5260321300    1.1224910893    0.4555113931          0.0007
C1417      C    0.5266827538    1.0988203271    0.4543994846          0.0007
H1418      H    0.5149618583    1.1482770494    0.4744303586          0.0007
H1419      H    0.5370967140    1.1298115602    0.4366021480          0.0007
H1420      H    0.5360916458    1.0872469052    0.4383197978          0.0007
Br1421    Br    0.5224037899    1.0913282920    0.4617121841          0.0007
O1422      O    0.5058902643    1.1545565058    0.4899336070          0.0007
C1423      C    0.4943127905    1.1689834718    0.5097193748          0.0007
C1424      C    0.4914710775    1.1526147459    0.5145758292          0.0007
C1425      C    0.5023274256    1.1896787362    0.4960224568          0.0007
H1426      H    0.4813569541    1.1512459599    0.5318607483          0.0007
H1427      H    0.4894275244    1.1865984621    0.5180682375          0.0007
H1428      H    0.4813791564    1.1683529419    0.5318228048          0.0007
H1429      H    0.4876128382    1.1305494185    0.5211695152          0.0007
H1430      H    0.5157116950    1.1691279449    0.4731488964          0.0007
C1431      C    0.5025419461    1.1694987061    0.4956558437          0.0007
H1432      H    0.5072708215    1.1340082757    0.4875742508          0.0007
C1433      C    0.4919292213    1.2094345489    0.5137928668          0.0007
N1434      N    0.4917147007    1.2296145790    0.5141594799          0.0007
C1435      C    0.5016920770    1.2502036567    0.4971082601          0.0007
C1436      C    0.5120982185    1.2304483904    0.4793242856          0.0007
C1437      C    0.5123041634    1.2102664588    0.4789723281          0.0007
C1438      C    0.5014768950    1.2703836414    0.4974760037          0.0007
H1439      H    0.4819435453    1.1888278534    0.5308582708          0.0007
H1440      H    0.5227109433    1.1905125476    0.4611872625          0.0007
H1441      H    0.5220756177    1.2510361584    0.4622730265          0.0007
N1442      N    0.4910793521    1.2901394995    0.5152452833          0.0007
C1443      C    0.4908641701    1.3103194841    0.5156130268          0.0007
C1444      C    0.5008498462    1.3309261795    0.4985476228          0.0007
C1446      C    0.5112483493    1.3111533410    0.4807767021          0.0007
C1447      C    0.5122786184    1.2941869815    0.4790159842          0.0007
H1448      H    0.5277801621    1.2855885435    0.4525240266          0.0007
H1449      H    0.5270340701    1.3221293588    0.4537990892          0.0007
H1450      H    0.4749435137    1.3229120380    0.5428212432          0.0007
C1451      C    0.4910793521    1.2901394995    0.5152452833          0.0007
N1452      N    0.4908641701    1.3103194841    0.5156130268          0.0007
C1453      C    0.5008498462    1.3309261795    0.4985476228          0.0007
C1454      C    0.5112483493    1.3111533410    0.4807767021          0.0007
C1455      C    0.5114625940    1.2909890271    0.4804105604          0.0007
H1457      H    0.4811019759    1.2695504218    0.5322965030          0.0007
H1458      H    0.5218610972    1.2712161886    0.4626396397          0.0007
H1459      H    0.5212254497    1.3317581350    0.4637259538          0.0007
N1460      N    0.4902377828    1.3708620678    0.5166835155          0.0007
C1461      C    0.4900226007    1.3910420525    0.5170512591          0.0007
C1462      C    0.5000000000    1.4116298205    0.5000000000          0.0007
C1463      C    0.5104067800    1.3918759094    0.4822149343          0.0007
C1464      C    0.5114280878    1.3748918866    0.4804695311          0.0007
H1465      H    0.5269388916    1.3662940859    0.4539617481          0.0007
H1466      H    0.5261842009    1.4028343095    0.4552515057          0.0007
H1467      H    0.4740936675    1.4036156790    0.5442736204          0.0007
C1344      C    0.5000000000    0.9116298205    0.0000000000          0.0007
C1345      C    0.5171435376    0.9046666714   -0.0013000140          0.0007
C1346      C    0.5185176199    0.8848646386   -0.0014042122          0.0007
C1347      C    0.5029590661    0.8734479619   -0.0002243894          0.0007
C1348      C    0.4857960900    0.8824809211    0.0010770987          0.0007
C1349      C    0.4840421979    0.9037724240    0.0012100983          0.0007
C1350      C    0.5033050368    0.8545253533   -0.0002506247          0.0007
H1351      H    0.5335959314    0.8744123408   -0.0025476178          0.0007
H1352      H    0.5307808223    0.9149293358   -0.0023341448          0.0007
C1353      C    0.4589392580    0.9095074495    0.0031136829          0.0007
C1354      C    0.4684067816    0.8702412037    0.0023957498          0.0007
C1355      C    0.4486023628    0.8775089107    0.0038975414          0.0007
C1356      C    0.4473177762    0.9011796729    0.0039949531          0.0007
H1357      H    0.4704594222    0.8517229506    0.0022400957          0.0007
H1358      H    0.4267565333    0.8701884398    0.0055541355          0.0007
H1359      H    0.4287409322    0.9127530948    0.0054036563          0.0007
Br1360    Br    0.4557661296    0.9086717080    0.0033543048          0.0007
O1361      O    0.4883703075    0.8454434942    0.0008818928          0.0007
C1362      C    0.5112287827    0.8310165282   -0.0008514914          0.0007
C1363      C    0.5168394389    0.8473852541   -0.0012769538          0.0007
C1364      C    0.4954047489    0.8103212638    0.0003484631          0.0007
H1365      H    0.5368086864    0.8487540401   -0.0027912446          0.0007
H1366      H    0.5208742144    0.8134015379   -0.0015829155          0.0007
H1367      H    0.5367648503    0.8316470581   -0.0027879205          0.0007
H1368      H    0.5244571169    0.8694505815   -0.0018546110          0.0007
H1369      H    0.4689789504    0.8308720551    0.0023523615          0.0007
C1370      C    0.4949812011    0.8305012939    0.0003805812          0.0007
H1371      H    0.4856445460    0.8659917243    0.0010885904          0.0007
C1372      C    0.5159348834    0.7905654511   -0.0012083604          0.0007
N1373      N    0.5163584311    0.7703854210   -0.0012404785          0.0007
C1374      C    0.4966591762    0.7497963433    0.0002533385          0.0007
C1375      C    0.4761133705    0.7695516096    0.0018113503          0.0007
C1376      C    0.4757067545    0.7897335412    0.0018421845          0.0007
C1377      C    0.4970840299    0.7296163586    0.0002211213          0.0007
H1378      H    0.5356505253    0.8111721466   -0.0027034200          0.0007
H1379      H    0.4551596882    0.8094874524    0.0034002919          0.0007
H1380      H    0.4564140702    0.7489638416    0.0033051707          0.0007
N1381      N    0.5176128585    0.7098605005   -0.0013356031          0.0007
C1382      C    0.5180377122    0.6896805159   -0.0013678203          0.0007
C1383      C    0.4983220703    0.6690738205    0.0001272393          0.0007
C1385      C    0.4777913456    0.6888466590    0.0016841076          0.0007
C1386      C    0.4757571903    0.7058130185    0.0018383599          0.0007
H1387      H    0.4451510617    0.7144114565    0.0041592575          0.0007
H1388      H    0.4466241401    0.6778706412    0.0040475523          0.0007
H1389      H    0.5494713338    0.6770879620   -0.0037514676          0.0007
C1390      C    0.5176128585    0.7098605005   -0.0013356031          0.0007
N1391      N    0.5180377122    0.6896805159   -0.0013678203          0.0007
C1392      C    0.4983220703    0.6690738205    0.0001272393          0.0007
C1393      C    0.4777913456    0.6888466590    0.0016841076          0.0007
C1394      C    0.4773683426    0.7090109729    0.0017161844          0.0007
H1396      H    0.5373121134    0.7304495782   -0.0028294201          0.0007
H1397      H    0.4568376180    0.7287838114    0.0032730526          0.0007
H1398      H    0.4580926355    0.6682418650    0.0031778832          0.0007
N1399      N    0.5192744466    0.6291379322   -0.0014616032          0.0007
C1400      C    0.5196993003    0.6089579475   -0.0014938204          0.0007
C1401      C    0.5000000000    0.5883701795    0.0000000000          0.0007
C1402      C    0.4794529338    0.6081240906    0.0015581074          0.0007
C1403      C    0.4774364714    0.6251081134    0.0017110181          0.0007
H1404      H    0.4468120597    0.6337059141    0.0040333021          0.0007
H1405      H    0.4483021152    0.5971656905    0.0039203095          0.0007
H1406      H    0.5511492635    0.5963843210   -0.0038787069          0.0007
C1283      C    0.5000000000    1.4116298205    0.0000000000          0.0007
C1284      C    0.5153760763    1.4046666714    0.0076920217          0.0007
C1285      C    0.5166084936    1.3848646386    0.0083085497          0.0007
C1286      C    0.5026539928    1.3734479619    0.0013276840          0.0007
C1287      C    0.4872604822    1.3824809211   -0.0063730594          0.0007
C1288      C    0.4856874126    1.4037724240   -0.0071600018          0.0007
C1289      C    0.5029642947    1.3545253533    0.0014829153          0.0007
H1290      H    0.5301322641    1.3744123408    0.0150739386          0.0007
H1291      H    0.5276073866    1.4149293358    0.0138108457          0.0007
C1292      C    0.4631725311    1.4095074495   -0.0184232756          0.0007
C1293      C    0.4716639735    1.3702412037   -0.0141753544          0.0007
C1294      C    0.4539013472    1.3775089107   -0.0230612695          0.0007
C1295      C    0.4527491987    1.4011796729   -0.0236376422          0.0007
H1296      H    0.4735049914    1.3517229506   -0.0132543685          0.0007
H1297      H    0.4343077751    1.3701884398   -0.0328631317          0.0007
H1298      H    0.4360875869    1.4127530948   -0.0319727648          0.0007
Br1299    Br    0.4603265453    1.4086717080   -0.0198470058          0.0007
O1300      O    0.4895693035    1.3454434942   -0.0052180506          0.0007
C1301      C    0.5100711196    1.3310165282    0.0050381690          0.0007
C1302      C    0.5151033295    1.3473852541    0.0075555777          0.0007
C1303      C    0.4958785092    1.3103212638   -0.0020618132          0.0007
H1304      H    0.5330137910    1.3487540401    0.0165154486          0.0007
H1305      H    0.5187221284    1.3134015379    0.0093659146          0.0007
H1306      H    0.5329744743    1.3316470581    0.0164957801          0.0007
H1307      H    0.5219356415    1.3694505815    0.0109735037          0.0007
H1308      H    0.4721771530    1.3308720551   -0.0139186317          0.0007
C1309      C    0.4954986283    1.3305012939   -0.0022518520          0.0007
H1310      H    0.4871245620    1.3659917243   -0.0064410547          0.0007
C1311      C    0.5142920316    1.2905654511    0.0071497185          0.0007
N1312      N    0.5146719125    1.2703854210    0.0073397574          0.0007
C1313      C    0.4970036079    1.2497963433   -0.0014989724          0.0007
C1314      C    0.4785760300    1.2695516096   -0.0107175355          0.0007
C1315      C    0.4782113352    1.2897335412   -0.0108999773          0.0007
C1316      C    0.4973846601    1.2296163586   -0.0013083475          0.0007
H1317      H    0.5319750338    1.3111721466    0.0159958009          0.0007
H1318      H    0.4597826267    1.3094874524   -0.0201191060          0.0007
H1319      H    0.4609076846    1.2489638416   -0.0195562856          0.0007
N1320      N    0.5157970112    1.2098605005    0.0079025982          0.0007
C1321      C    0.5161780634    1.1896805159    0.0080932230          0.0007
C1322      C    0.4984950612    1.1690738205   -0.0007528593          0.0007
C1324      C    0.4800810095    1.1888466590   -0.0099646558          0.0007
C1325      C    0.4782565712    1.2058130185   -0.0108773476          0.0007
H1326      H    0.4508058678    1.2144114565   -0.0246098112          0.0007
H1327      H    0.4521270749    1.1778706412   -0.0239488653          0.0007
H1328      H    0.5443709471    1.1770879620    0.0221969690          0.0007
C1329      C    0.5157970112    1.2098605005    0.0079025982          0.0007
N1330      N    0.5161780634    1.1896805159    0.0080932230          0.0007
C1331      C    0.4984950612    1.1690738205   -0.0007528593          0.0007
C1332      C    0.4800810095    1.1888466590   -0.0099646558          0.0007
C1333      C    0.4797016172    1.2090109729   -0.0101544503          0.0007
H1335      H    0.5334653158    1.2304495782    0.0167413280          0.0007
H1336      H    0.4612875655    1.2287838114   -0.0193662467          0.0007
H1337      H    0.4624131934    1.1682418650   -0.0188031411          0.0007
N1338      N    0.5172872931    1.1291379322    0.0086481253          0.0007
C1339      C    0.5176683454    1.1089579475    0.0088387501          0.0007
C1340      C    0.5000000000    1.0883701795    0.0000000000          0.0007
C1341      C    0.4815712915    1.1081240906   -0.0092191287          0.0007
C1342      C    0.4797627220    1.1251081134   -0.0101238820          0.0007
H1343      H    0.4522956205    1.1337059141   -0.0238645489          0.0007
H1344      H    0.4536320545    1.0971656905   -0.0231959856          0.0007
H1345      H    0.5458758859    1.0963843210    0.0229498283          0.0007
C1222      C    0.5000000000    1.0000000000   -0.0883701795          0.0007
C1223      C    0.5000000000    0.9828072422   -0.0953333286          0.0007
C1224      C    0.5000000000    0.9814292149   -0.1151353614          0.0007
C1225      C    0.5000000000    0.9970324383   -0.1265520381          0.0007
C1226      C    0.5000000000    1.0142446903   -0.1175190789          0.0007
C1227      C    0.5000000000    1.0160036179   -0.0962275760          0.0007
C1228      C    0.5000000000    0.9966854743   -0.1454746467          0.0007
H1229      H    0.5000000000    0.9663076126   -0.1255876592          0.0007
H1230      H    0.5000000000    0.9691308041   -0.0850706642          0.0007
C1231      C    0.5000000000    1.0411786298   -0.0904925505          0.0007
C1232      C    0.5000000000    1.0316839245   -0.1297587963          0.0007
C1233      C    0.5000000000    1.0515452028   -0.1224910893          0.0007
C1234      C    0.5000000000    1.0528334776   -0.0988203271          0.0007
H1235      H    0.5000000000    1.0296253906   -0.1482770494          0.0007
H1236      H    0.5000000000    1.0734537530   -0.1298115602          0.0007
H1237      H    0.5000000000    1.0714636568   -0.0872469052          0.0007
Br1238    Br    0.5000000000    1.0443608685   -0.0913282920          0.0007
O1239      O    0.5000000000    1.0116630820   -0.1545565058          0.0007
C1240      C    0.5000000000    0.9887389788   -0.1689834718          0.0007
C1241      C    0.5000000000    0.9831122140   -0.1526147459          0.0007
C1242      C    0.5000000000    1.0046084444   -0.1896787362          0.0007
H1243      H    0.5000000000    0.9630856337   -0.1512459599          0.0007
H1244      H    0.5000000000    0.9790658545   -0.1865984621          0.0007
H1245      H    0.5000000000    0.9631295956   -0.1683529419          0.0007
H1246      H    0.5000000000    0.9754726652   -0.1305494185          0.0007
H1247      H    0.5000000000    1.0311101129   -0.1691279449          0.0007
C1248      C    0.5000000000    1.0050332082   -0.1694987061          0.0007
H1249      H    0.5000000000    1.0143966694   -0.1340082757          0.0007
C1250      C    0.5000000000    0.9840193666   -0.2094345489          0.0007
N1251      N    0.5000000000    0.9835946028   -0.2296145790          0.0007
C1252      C    0.5000000000    1.0033504155   -0.2502036567          0.0007
C1253      C    0.5000000000    1.0239552094   -0.2304483904          0.0007
C1254      C    0.5000000000    1.0243629929   -0.2102664588          0.0007
C1255      C    0.5000000000    1.0029243420   -0.2703836414          0.0007
H1256      H    0.5000000000    0.9642471199   -0.1888278534          0.0007
H1257      H    0.5000000000    1.0449690510   -0.1905125476          0.0007
H1258      H    0.5000000000    1.0437110676   -0.2510361584          0.0007
N1259      N    0.5000000000    0.9823365739   -0.2901394995          0.0007
C1260      C    0.5000000000    0.9819105005   -0.3103194841          0.0007
C1261      C    0.5000000000    1.0016827472   -0.3309261795          0.0007
C1263      C    0.5000000000    1.0222724167   -0.3111533410          0.0007
C1264      C    0.5000000000    1.0243124123   -0.2941869815          0.0007
H1265      H    0.5000000000    1.0550064128   -0.2855885435          0.0007
H1266      H    0.5000000000    1.0535291052   -0.3221293588          0.0007
H1267      H    0.5000000000    0.9503866311   -0.3229120380          0.0007
C1268      C    0.5000000000    0.9823365739   -0.2901394995          0.0007
N1269      N    0.5000000000    0.9819105005   -0.3103194841          0.0007
C1270      C    0.5000000000    1.0016827472   -0.3309261795          0.0007
C1271      C    0.5000000000    1.0222724167   -0.3111533410          0.0007
C1272      C    0.5000000000    1.0226966342   -0.2909890271          0.0007
H1274      H    0.5000000000    0.9625807613   -0.2695504218          0.0007
H1275      H    0.5000000000    1.0432863038   -0.2712161886          0.0007
H1276      H    0.5000000000    1.0420276831   -0.3317581350          0.0007
N1277      N    0.5000000000    0.9806702153   -0.3708620678          0.0007
C1278      C    0.5000000000    0.9802441418   -0.3910420525          0.0007
C1279      C    0.5000000000    1.0000000000   -0.4116298205          0.0007
C1280      C    0.5000000000    1.0206060581   -0.3918759094          0.0007
C1281      C    0.5000000000    1.0226283099   -0.3748918866          0.0007
H1282      H    0.5000000000    1.0533406460   -0.3662940859          0.0007
H1283      H    0.5000000000    1.0518463125   -0.4028343095          0.0007
H1284      H    0.5000000000    0.9487038839   -0.4036156790          0.0007
C1161      C    0.5000000000    1.0000000000    0.0883701795          0.0007
C1162      C    0.4828072422    1.0000000000    0.0953333286          0.0007
C1163      C    0.4814292149    1.0000000000    0.1151353614          0.0007
C1164      C    0.4970324383    1.0000000000    0.1265520381          0.0007
C1165      C    0.5142446903    1.0000000000    0.1175190789          0.0007
C1166      C    0.5160036179    1.0000000000    0.0962275760          0.0007
C1167      C    0.4966854743    1.0000000000    0.1454746467          0.0007
H1168      H    0.4663076126    1.0000000000    0.1255876592          0.0007
H1169      H    0.4691308041    1.0000000000    0.0850706642          0.0007
C1170      C    0.5411786298    1.0000000000    0.0904925505          0.0007
C1171      C    0.5316839245    1.0000000000    0.1297587963          0.0007
C1172      C    0.5515452028    1.0000000000    0.1224910893          0.0007
C1173      C    0.5528334776    1.0000000000    0.0988203271          0.0007
H1174      H    0.5296253906    1.0000000000    0.1482770494          0.0007
H1175      H    0.5734537530    1.0000000000    0.1298115602          0.0007
H1176      H    0.5714636568    1.0000000000    0.0872469052          0.0007
Br1177    Br    0.5443608685    1.0000000000    0.0913282920          0.0007
O1178      O    0.5116630820    1.0000000000    0.1545565058          0.0007
C1179      C    0.4887389788    1.0000000000    0.1689834718          0.0007
C1180      C    0.4831122140    1.0000000000    0.1526147459          0.0007
C1181      C    0.5046084444    1.0000000000    0.1896787362          0.0007
H1182      H    0.4630856337    1.0000000000    0.1512459599          0.0007
H1183      H    0.4790658545    1.0000000000    0.1865984621          0.0007
H1184      H    0.4631295956    1.0000000000    0.1683529419          0.0007
H1185      H    0.4754726652    1.0000000000    0.1305494185          0.0007
H1186      H    0.5311101129    1.0000000000    0.1691279449          0.0007
C1187      C    0.5050332082    1.0000000000    0.1694987061          0.0007
H1188      H    0.5143966694    1.0000000000    0.1340082757          0.0007
C1189      C    0.4840193666    1.0000000000    0.2094345489          0.0007
N1190      N    0.4835946028    1.0000000000    0.2296145790          0.0007
C1191      C    0.5033504155    1.0000000000    0.2502036567          0.0007
C1192      C    0.5239552094    1.0000000000    0.2304483904          0.0007
C1193      C    0.5243629929    1.0000000000    0.2102664588          0.0007
C1194      C    0.5029243420    1.0000000000    0.2703836414          0.0007
H1195      H    0.4642471199    1.0000000000    0.1888278534          0.0007
H1196      H    0.5449690510    1.0000000000    0.1905125476          0.0007
H1197      H    0.5437110676    1.0000000000    0.2510361584          0.0007
N1198      N    0.4823365739    1.0000000000    0.2901394995          0.0007
C1199      C    0.4819105005    1.0000000000    0.3103194841          0.0007
C1200      C    0.5016827472    1.0000000000    0.3309261795          0.0007
C1202      C    0.5222724167    1.0000000000    0.3111533410          0.0007
C1203      C    0.5243124123    1.0000000000    0.2941869815          0.0007
H1204      H    0.5550064128    1.0000000000    0.2855885435          0.0007
H1205      H    0.5535291052    1.0000000000    0.3221293588          0.0007
H1206      H    0.4503866311    1.0000000000    0.3229120380          0.0007
C1207      C    0.4823365739    1.0000000000    0.2901394995          0.0007
N1208      N    0.4819105005    1.0000000000    0.3103194841          0.0007
C1209      C    0.5016827472    1.0000000000    0.3309261795          0.0007
C1210      C    0.5222724167    1.0000000000    0.3111533410          0.0007
C1211      C    0.5226966342    1.0000000000    0.2909890271          0.0007
H1213      H    0.4625807613    1.0000000000    0.2695504218          0.0007
H1214      H    0.5432863038    1.0000000000    0.2712161886          0.0007
H1215      H    0.5420276831    1.0000000000    0.3317581350          0.0007
N1216      N    0.4806702153    1.0000000000    0.3708620678          0.0007
C1217      C    0.4802441418    1.0000000000    0.3910420525          0.0007
C1218      C    0.5000000000    1.0000000000    0.4116298205          0.0007
C1219      C    0.5206060581    1.0000000000    0.3918759094          0.0007
C1220      C    0.5226283099    1.0000000000    0.3748918866          0.0007
H1221      H    0.5533406460    1.0000000000    0.3662940859          0.0007
H1222      H    0.5518463125    1.0000000000    0.4028343095          0.0007
H1223      H    0.4487038839    1.0000000000    0.4036156790          0.0007
C1100      C    0.9116298205    0.5000000000    0.5000000000          0.0007
C1101      C    0.9046666714    0.5143052391    0.4904631739          0.0007
C1102      C    0.8848646386    0.5154518272    0.4896987819          0.0007
C1103      C    0.8734479619    0.5024691606    0.4983538929          0.0007
C1104      C    0.8824809211    0.4881477013    0.5079015325          0.0007
C1105      C    0.9037724240    0.4866841850    0.5088772100          0.0007
C1106      C    0.8545253533    0.5027578521    0.4981614319          0.0007
H1107      H    0.8744123408    0.5280337608    0.4813108261          0.0007
H1108      H    0.9149293358    0.5256847235    0.4828768510          0.0007
C1109      C    0.9095074495    0.4657373090    0.5228417940          0.0007
C1110      C    0.8702412037    0.4736373813    0.5175750791          0.0007
C1111      C    0.8775089107    0.4571117988    0.5285921341          0.0007
C1112      C    0.9011796729    0.4560398894    0.5293067404          0.0007
H1113      H    0.8517229506    0.4753501851    0.5164332100          0.0007
H1114      H    0.8701884398    0.4388827832    0.5407448112          0.0007
H1115      H    0.9127530948    0.4405386433    0.5396409044          0.0007
Br1116    Br    0.9086717080    0.4630895263    0.5246069825          0.0007
O1117      O    0.8454434942    0.4902957292    0.5064695139          0.0007
C1118      C    0.8310165282    0.5093697360    0.4937535093          0.0007
C1119      C    0.8473852541    0.5140514873    0.4906323418          0.0007
C1120      C    0.8103212638    0.4961655425    0.5025563050          0.0007
H1121      H    0.8487540401    0.5307146094    0.4795235938          0.0007
H1122      H    0.8134015379    0.5174182619    0.4883878254          0.0007
H1123      H    0.8316470581    0.5306780308    0.4795479795          0.0007
H1124      H    0.8694505815    0.5204079761    0.4863946826          0.0007
H1125      H    0.8308720551    0.4741148214    0.5172567857          0.0007
C1126      C    0.8305012939    0.4958121177    0.5027919216          0.0007
H1127      H    0.8659917243    0.4880212470    0.5079858353          0.0007
C1128      C    0.7905654511    0.5132966907    0.4911355395          0.0007
N1129      N    0.7703854210    0.5136501155    0.4908999230          0.0007
C1130      C    0.7497963433    0.4972122858    0.5018584761          0.0007
C1131      C    0.7695516096    0.4800680610    0.5132879594          0.0007
C1132      C    0.7897335412    0.4797287646    0.5135141569          0.0007
C1133      C    0.7296163586    0.4975668004    0.5016221331          0.0007
H1134      H    0.8111721466    0.5297481944    0.4801678704          0.0007
H1135      H    0.8094874524    0.4625834879    0.5249443414          0.0007
H1136      H    0.7489638416    0.4636301934    0.5242465378          0.0007
N1137      N    0.7098605005    0.5146968588    0.4902020941          0.0007
C1138      C    0.6896805159    0.5150513734    0.4899657511          0.0007
C1139      C    0.6690738205    0.4985998697    0.5009334202          0.0007
C1141      C    0.6888466590    0.4814682291    0.5123545139          0.0007
C1142      C    0.7058130185    0.4797708502    0.5134860998          0.0007
H1143      H    0.7144114565    0.4542318980    0.5305120680          0.0007
H1144      H    0.6778706412    0.4554610923    0.5296926051          0.0007
H1145      H    0.6770879620    0.5412808182    0.4724794545          0.0007
C1146      C    0.7098605005    0.5146968588    0.4902020941          0.0007
N1147      N    0.6896805159    0.5150513734    0.4899657511          0.0007
C1148      C    0.6690738205    0.4985998697    0.5009334202          0.0007
C1149      C    0.6888466590    0.4814682291    0.5123545139          0.0007
C1150      C    0.7090109729    0.4811152588    0.5125898275          0.0007
H1152      H    0.7304495782    0.5311346886    0.4792435410          0.0007
H1153      H    0.7287838114    0.4639836182    0.5240109212          0.0007
H1154      H    0.6682418650    0.4650308539    0.5233127640          0.0007
N1155      N    0.6291379322    0.5160833530    0.4892777646          0.0007
C1156      C    0.6089579475    0.5164378676    0.4890414216          0.0007
C1157      C    0.5883701795    0.5000000000    0.5000000000          0.0007
C1158      C    0.6081240906    0.4828547233    0.5114301845          0.0007
C1159      C    0.6251081134    0.4811721081    0.5125519279          0.0007
H1160      H    0.6337059141    0.4556178998    0.5295880668          0.0007
H1161      H    0.5971656905    0.4568612604    0.5287591597          0.0007
H1162      H    0.5963843210    0.5426809485    0.4715460343          0.0007
C1039      C    1.0883701795    0.5000000000    0.5000000000          0.0007
C1040      C    1.0953333286    0.5143052391    0.4904631739          0.0007
C1041      C    1.1151353614    0.5154518272    0.4896987819          0.0007
C1042      C    1.1265520381    0.5024691606    0.4983538929          0.0007
C1043      C    1.1175190789    0.4881477013    0.5079015325          0.0007
C1044      C    1.0962275760    0.4866841850    0.5088772100          0.0007
C1045      C    1.1454746467    0.5027578521    0.4981614319          0.0007
H1046      H    1.1255876592    0.5280337608    0.4813108261          0.0007
H1047      H    1.0850706642    0.5256847235    0.4828768510          0.0007
C1048      C    1.0904925505    0.4657373090    0.5228417940          0.0007
C1049      C    1.1297587963    0.4736373813    0.5175750791          0.0007
C1050      C    1.1224910893    0.4571117988    0.5285921341          0.0007
C1051      C    1.0988203271    0.4560398894    0.5293067404          0.0007
H1052      H    1.1482770494    0.4753501851    0.5164332100          0.0007
H1053      H    1.1298115602    0.4388827832    0.5407448112          0.0007
H1054      H    1.0872469052    0.4405386433    0.5396409044          0.0007
Br1055    Br    1.0913282920    0.4630895263    0.5246069825          0.0007
O1056      O    1.1545565058    0.4902957292    0.5064695139          0.0007
C1057      C    1.1689834718    0.5093697360    0.4937535093          0.0007
C1058      C    1.1526147459    0.5140514873    0.4906323418          0.0007
C1059      C    1.1896787362    0.4961655425    0.5025563050          0.0007
H1060      H    1.1512459599    0.5307146094    0.4795235938          0.0007
H1061      H    1.1865984621    0.5174182619    0.4883878254          0.0007
H1062      H    1.1683529419    0.5306780308    0.4795479795          0.0007
H1063      H    1.1305494185    0.5204079761    0.4863946826          0.0007
H1064      H    1.1691279449    0.4741148214    0.5172567857          0.0007
C1065      C    1.1694987061    0.4958121177    0.5027919216          0.0007
H1066      H    1.1340082757    0.4880212470    0.5079858353          0.0007
C1067      C    1.2094345489    0.5132966907    0.4911355395          0.0007
N1068      N    1.2296145790    0.5136501155    0.4908999230          0.0007
C1069      C    1.2502036567    0.4972122858    0.5018584761          0.0007
C1070      C    1.2304483904    0.4800680610    0.5132879594          0.0007
C1071      C    1.2102664588    0.4797287646    0.5135141569          0.0007
C1072      C    1.2703836414    0.4975668004    0.5016221331          0.0007
H1073      H    1.1888278534    0.5297481944    0.4801678704          0.0007
H1074      H    1.1905125476    0.4625834879    0.5249443414          0.0007
H1075      H    1.2510361584    0.4636301934    0.5242465378          0.0007
N1076      N    1.2901394995    0.5146968588    0.4902020941          0.0007
C1077      C    1.3103194841    0.5150513734    0.4899657511          0.0007
C1078      C    1.3309261795    0.4985998697    0.5009334202          0.0007
C1080      C    1.3111533410    0.4814682291    0.5123545139          0.0007
C1081      C    1.2941869815    0.4797708502    0.5134860998          0.0007
H1082      H    1.2855885435    0.4542318980    0.5305120680          0.0007
H1083      H    1.3221293588    0.4554610923    0.5296926051          0.0007
H1084      H    1.3229120380    0.5412808182    0.4724794545          0.0007
C1085      C    1.2901394995    0.5146968588    0.4902020941          0.0007
N1086      N    1.3103194841    0.5150513734    0.4899657511          0.0007
C1087      C    1.3309261795    0.4985998697    0.5009334202          0.0007
C1088      C    1.3111533410    0.4814682291    0.5123545139          0.0007
C1089      C    1.2909890271    0.4811152588    0.5125898275          0.0007
H1091      H    1.2695504218    0.5311346886    0.4792435410          0.0007
H1092      H    1.2712161886    0.4639836182    0.5240109212          0.0007
H1093      H    1.3317581350    0.4650308539    0.5233127640          0.0007
N1094      N    1.3708620678    0.5160833530    0.4892777646          0.0007
C1095      C    1.3910420525    0.5164378676    0.4890414216          0.0007
C1096      C    1.4116298205    0.5000000000    0.5000000000          0.0007
C1097      C    1.3918759094    0.4828547233    0.5114301845          0.0007
C1098      C    1.3748918866    0.4811721081    0.5125519279          0.0007
H1099      H    1.3662940859    0.4556178998    0.5295880668          0.0007
H1100      H    1.4028343095    0.4568612604    0.5287591597          0.0007
H1101      H    1.4036156790    0.5426809485    0.4715460343          0.0007
C978       C    0.9116298205    0.5000000000    0.0000000000          0.0007
C979       C    0.9046666714    0.4879084950    0.0122223740          0.0007
C980       C    0.8848646386    0.4869393414    0.0132020171          0.0007
C981       C    0.8734479619    0.4979129417    0.0021096470          0.0007
C982       C    0.8824809211    0.5100181568   -0.0101265855          0.0007
C983       C    0.9037724240    0.5112551941   -0.0113770115          0.0007
C984       C    0.8545253533    0.4976689252    0.0023563045          0.0007
H985       H    0.8744123408    0.4763044606    0.0239520015          0.0007
H986       H    0.9149293358    0.4782899846    0.0219449877          0.0007
C987       C    0.9095074495    0.5289605434   -0.0292739898          0.0007
C988       C    0.8702412037    0.5222830063   -0.0225241803          0.0007
C989       C    0.8775089107    0.5362512568   -0.0366436122          0.0007
C990       C    0.9011796729    0.5371572883   -0.0375594499          0.0007
H991       H    0.8517229506    0.5208352588   -0.0210607635          0.0007
H992       H    0.8701884398    0.5516593342   -0.0522184548          0.0007
H993       H    0.9127530948    0.5502597182   -0.0508036904          0.0007
Br994     Br    0.9086717080    0.5311985819   -0.0315362512          0.0007
O995       O    0.8454434942    0.5082025360   -0.0082913138          0.0007
C996       C    0.8310165282    0.4920802296    0.0080054878          0.0007
C997       C    0.8473852541    0.4881229788    0.0120055688          0.0007
C998       C    0.8103212638    0.5032410756   -0.0032761545          0.0007
H999       H    0.8487540401    0.4740384731    0.0262425144          0.0007
H1000      H    0.8134015379    0.4852772122    0.0148821358          0.0007
H1001      H    0.8316470581    0.4740693911    0.0262112617          0.0007
H1002      H    0.8694505815    0.4827501559    0.0174365430          0.0007
H1003      H    0.8308720551    0.5218794501   -0.0221162562          0.0007
C1004      C    0.8305012939    0.5035398080   -0.0035781201          0.0007
H1005      H    0.8659917243    0.5101250423   -0.0102346279          0.0007
C1006      C    0.7905654511    0.4887609707    0.0113606718          0.0007
N1007      N    0.7703854210    0.4884622383    0.0116626374          0.0007
C1008      C    0.7497963433    0.5023563157   -0.0023818187          0.0007
C1009      C    0.7695516096    0.5168474737   -0.0170298176          0.0007
C1010      C    0.7897335412    0.5171342639   -0.0173197119          0.0007
C1011      C    0.7296163586    0.5020566623   -0.0020789220          0.0007
H1012      H    0.8111721466    0.4748553354    0.0254168109          0.0007
H1013      H    0.8094874524    0.5316263109   -0.0319686096          0.0007
H1014      H    0.7489638416    0.5307415831   -0.0310743061          0.0007
N1015      N    0.7098605005    0.4875774784    0.0125569733          0.0007
C1016      C    0.6896805159    0.4872778250    0.0128598700          0.0007
C1017      C    0.6690738205    0.5011834603   -0.0011962691          0.0007
C1019      C    0.6888466590    0.5156639814   -0.0158335162          0.0007
C1020      C    0.7058130185    0.5170986911   -0.0172837540          0.0007
H1021      H    0.7144114565    0.5386854932   -0.0391041950          0.0007
H1022      H    0.6778706412    0.5376465166   -0.0380539733          0.0007
H1023      H    0.6770879620    0.4651073839    0.0352702667          0.0007
C1024      C    0.7098605005    0.4875774784    0.0125569733          0.0007
N1025      N    0.6896805159    0.4872778250    0.0128598700          0.0007
C1026      C    0.6690738205    0.5011834603   -0.0011962691          0.0007
C1027      C    0.6888466590    0.5156639814   -0.0158335162          0.0007
C1028      C    0.7090109729    0.5159623296   -0.0161350934          0.0007
H1030      H    0.7304495782    0.4736834011    0.0266014294          0.0007
H1031      H    0.7287838114    0.5304428507   -0.0307723405          0.0007
H1032      H    0.6682418650    0.5295576746   -0.0298775839          0.0007
N1033      N    0.6291379322    0.4864055441    0.0137415918          0.0007
C1034      C    0.6089579475    0.4861058906    0.0140444884          0.0007
C1035      C    0.5883701795    0.5000000000    0.0000000000          0.0007
C1036      C    0.6081240906    0.5144920470   -0.0146488977          0.0007
C1037      C    0.6251081134    0.5159142777   -0.0160865215          0.0007
H1038      H    0.6337059141    0.5375139751   -0.0379199972          0.0007
H1039      H    0.5971656905    0.5364630244   -0.0368576718          0.0007
H1040      H    0.5963843210    0.4639239236    0.0364665359          0.0007
C917       C    1.0883701795    0.5000000000    0.0000000000          0.0007
C918       C    1.0953333286    0.5098653071   -0.0140807185          0.0007
C919       C    1.1151353614    0.5106560274   -0.0152093109          0.0007
C920       C    1.1265520381    0.5017028047   -0.0024304072          0.0007
C921       C    1.1175190789    0.4918263116    0.0116662770          0.0007
C922       C    1.0962275760    0.4908170284    0.0131068233          0.0007
C923       C    1.1454746467    0.5019018947   -0.0027145676          0.0007
H924       H    1.1255876592    0.5193328932   -0.0275937712          0.0007
H925       H    1.0850706642    0.5177129290   -0.0252816020          0.0007
C926       C    1.0904925505    0.4763714562    0.0337249384          0.0007
C927       C    1.1297587963    0.4818195748    0.0259488576          0.0007
C928       C    1.1224910893    0.4704230546    0.0422150712          0.0007
C929       C    1.0988203271    0.4696838349    0.0432701570          0.0007
H930       H    1.1482770494    0.4830007739    0.0242629363          0.0007
H931       H    1.1298115602    0.4578517976    0.0601579826          0.0007
H932       H    1.0872469052    0.4589937267    0.0585281111          0.0007
Br933     Br    1.0913282920    0.4745454686    0.0363311641          0.0007
O934       O    1.1545565058    0.4933076539    0.0095519623          0.0007
C935       C    1.1689834718    0.5064616412   -0.0092226781          0.0007
C936       C    1.1526147459    0.5096903125   -0.0138309493          0.0007
C937       C    1.1896787362    0.4973556471    0.0037742757          0.0007
H938       H    1.1512459599    0.5211816840   -0.0302325438          0.0007
H939       H    1.1865984621    0.5120121378   -0.0171448824          0.0007
H940       H    1.1683529419    0.5211564583   -0.0301965394          0.0007
H941       H    1.1305494185    0.5140739312   -0.0200876731          0.0007
H942       H    1.1691279449    0.4821488313    0.0254789109          0.0007
C943       C    1.1694987061    0.4971119151    0.0041221536          0.0007
H944       H    1.1340082757    0.4917391051    0.0117907466          0.0007
C945       C    1.2094345489    0.5091697829   -0.0130879992          0.0007
N946       N    1.2296145790    0.5094135149   -0.0134358771          0.0007
C947       C    1.2502036567    0.4980775116    0.0027439610          0.0007
C948       C    1.2304483904    0.4862543577    0.0196191074          0.0007
C949       C    1.2102664588    0.4860203691    0.0199530785          0.0007
C950       C    1.2703836414    0.4983219951    0.0023950106          0.0007
H951       H    1.1888278534    0.5205152162   -0.0292812967          0.0007
H952       H    1.1905125476    0.4741964899    0.0368292602          0.0007
H953       H    1.2510361584    0.4749183283    0.0357989828          0.0007
N954       N    1.2901394995    0.5101353794   -0.0144661918          0.0007
C955       C    1.3103194841    0.5103798629   -0.0148151422          0.0007
C956       C    1.3309261795    0.4990344296    0.0013781552          0.0007
C958       C    1.3111533410    0.4872199542    0.0182409149          0.0007
C959       C    1.2941869815    0.4860493926    0.0199116534          0.0007
H960       H    1.2855885435    0.4684369916    0.0450497720          0.0007
H961       H    1.3221293588    0.4692846796    0.0438398699          0.0007
H962       H    1.3229120380    0.5284684475   -0.0406329161          0.0007
C963       C    1.2901394995    0.5101353794   -0.0144661918          0.0007
N964       N    1.3103194841    0.5103798629   -0.0148151422          0.0007
C965       C    1.3309261795    0.4990344296    0.0013781552          0.0007
C966       C    1.3111533410    0.4872199542    0.0182409149          0.0007
C967       C    1.2909890271    0.4869765357    0.0185883453          0.0007
H969       H    1.2695504218    0.5214713827   -0.0306460299          0.0007
H970       H    1.2712161886    0.4751620603    0.0354511050          0.0007
H971       H    1.3317581350    0.4758842643    0.0344203056          0.0007
N972       N    1.3708620678    0.5110915459   -0.0158309249          0.0007
C973       C    1.3910420525    0.5113360295   -0.0161798754          0.0007
C974       C    1.4116298205    0.5000000000    0.0000000000          0.0007
C975       C    1.3918759094    0.4881761207    0.0168761817          0.0007
C976       C    1.3748918866    0.4870157406    0.0185323883          0.0007
H977       H    1.3662940859    0.4693928186    0.0436855235          0.0007
H978       H    1.4028343095    0.4702502761    0.0424616774          0.0007
H979       H    1.4036156790    0.5294340179   -0.0420110714          0.0007
C856       C    1.0000000000    0.5000000000   -0.0883701795          0.0007
C857       C    1.0000000000    0.4828072422   -0.0953333286          0.0007
C858       C    1.0000000000    0.4814292149   -0.1151353614          0.0007
C859       C    1.0000000000    0.4970324383   -0.1265520381          0.0007
C860       C    1.0000000000    0.5142446903   -0.1175190789          0.0007
C861       C    1.0000000000    0.5160036179   -0.0962275760          0.0007
C862       C    1.0000000000    0.4966854743   -0.1454746467          0.0007
H863       H    1.0000000000    0.4663076126   -0.1255876592          0.0007
H864       H    1.0000000000    0.4691308041   -0.0850706642          0.0007
C865       C    1.0000000000    0.5411786298   -0.0904925505          0.0007
C866       C    1.0000000000    0.5316839245   -0.1297587963          0.0007
C867       C    1.0000000000    0.5515452028   -0.1224910893          0.0007
C868       C    1.0000000000    0.5528334776   -0.0988203271          0.0007
H869       H    1.0000000000    0.5296253906   -0.1482770494          0.0007
H870       H    1.0000000000    0.5734537530   -0.1298115602          0.0007
H871       H    1.0000000000    0.5714636568   -0.0872469052          0.0007
Br872     Br    1.0000000000    0.5443608685   -0.0913282920          0.0007
O873       O    1.0000000000    0.5116630820   -0.1545565058          0.0007
C874       C    1.0000000000    0.4887389788   -0.1689834718          0.0007
C875       C    1.0000000000    0.4831122140   -0.1526147459          0.0007
C876       C    1.0000000000    0.5046084444   -0.1896787362          0.0007
H877       H    1.0000000000    0.4630856337   -0.1512459599          0.0007
H878       H    1.0000000000    0.4790658545   -0.1865984621          0.0007
H879       H    1.0000000000    0.4631295956   -0.1683529419          0.0007
H880       H    1.0000000000    0.4754726652   -0.1305494185          0.0007
H881       H    1.0000000000    0.5311101129   -0.1691279449          0.0007
C882       C    1.0000000000    0.5050332082   -0.1694987061          0.0007
H883       H    1.0000000000    0.5143966694   -0.1340082757          0.0007
C884       C    1.0000000000    0.4840193666   -0.2094345489          0.0007
N885       N    1.0000000000    0.4835946028   -0.2296145790          0.0007
C886       C    1.0000000000    0.5033504155   -0.2502036567          0.0007
C887       C    1.0000000000    0.5239552094   -0.2304483904          0.0007
C888       C    1.0000000000    0.5243629929   -0.2102664588          0.0007
C889       C    1.0000000000    0.5029243420   -0.2703836414          0.0007
H890       H    1.0000000000    0.4642471199   -0.1888278534          0.0007
H891       H    1.0000000000    0.5449690510   -0.1905125476          0.0007
H892       H    1.0000000000    0.5437110676   -0.2510361584          0.0007
N893       N    1.0000000000    0.4823365739   -0.2901394995          0.0007
C894       C    1.0000000000    0.4819105005   -0.3103194841          0.0007
C895       C    1.0000000000    0.5016827472   -0.3309261795          0.0007
C897       C    1.0000000000    0.5222724167   -0.3111533410          0.0007
C898       C    1.0000000000    0.5243124123   -0.2941869815          0.0007
H899       H    1.0000000000    0.5550064128   -0.2855885435          0.0007
H900       H    1.0000000000    0.5535291052   -0.3221293588          0.0007
H901       H    1.0000000000    0.4503866311   -0.3229120380          0.0007
C902       C    1.0000000000    0.4823365739   -0.2901394995          0.0007
N903       N    1.0000000000    0.4819105005   -0.3103194841          0.0007
C904       C    1.0000000000    0.5016827472   -0.3309261795          0.0007
C905       C    1.0000000000    0.5222724167   -0.3111533410          0.0007
C906       C    1.0000000000    0.5226966342   -0.2909890271          0.0007
H908       H    1.0000000000    0.4625807613   -0.2695504218          0.0007
H909       H    1.0000000000    0.5432863038   -0.2712161886          0.0007
H910       H    1.0000000000    0.5420276831   -0.3317581350          0.0007
N911       N    1.0000000000    0.4806702153   -0.3708620678          0.0007
C912       C    1.0000000000    0.4802441418   -0.3910420525          0.0007
C913       C    1.0000000000    0.5000000000   -0.4116298205          0.0007
C914       C    1.0000000000    0.5206060581   -0.3918759094          0.0007
C915       C    1.0000000000    0.5226283099   -0.3748918866          0.0007
H916       H    1.0000000000    0.5533406460   -0.3662940859          0.0007
H917       H    1.0000000000    0.5518463125   -0.4028343095          0.0007
H918       H    1.0000000000    0.4487038839   -0.4036156790          0.0007
C795       C    1.0000000000    0.5000000000    0.0883701795          0.0007
C796       C    0.9828072422    0.5000000000    0.0953333286          0.0007
C797       C    0.9814292149    0.5000000000    0.1151353614          0.0007
C798       C    0.9970324383    0.5000000000    0.1265520381          0.0007
C799       C    1.0142446903    0.5000000000    0.1175190789          0.0007
C800       C    1.0160036179    0.5000000000    0.0962275760          0.0007
C801       C    0.9966854743    0.5000000000    0.1454746467          0.0007
H802       H    0.9663076126    0.5000000000    0.1255876592          0.0007
H803       H    0.9691308041    0.5000000000    0.0850706642          0.0007
C804       C    1.0411786298    0.5000000000    0.0904925505          0.0007
C805       C    1.0316839245    0.5000000000    0.1297587963          0.0007
C806       C    1.0515452028    0.5000000000    0.1224910893          0.0007
C807       C    1.0528334776    0.5000000000    0.0988203271          0.0007
H808       H    1.0296253906    0.5000000000    0.1482770494          0.0007
H809       H    1.0734537530    0.5000000000    0.1298115602          0.0007
H810       H    1.0714636568    0.5000000000    0.0872469052          0.0007
Br811     Br    1.0443608685    0.5000000000    0.0913282920          0.0007
O812       O    1.0116630820    0.5000000000    0.1545565058          0.0007
C813       C    0.9887389788    0.5000000000    0.1689834718          0.0007
C814       C    0.9831122140    0.5000000000    0.1526147459          0.0007
C815       C    1.0046084444    0.5000000000    0.1896787362          0.0007
H816       H    0.9630856337    0.5000000000    0.1512459599          0.0007
H817       H    0.9790658545    0.5000000000    0.1865984621          0.0007
H818       H    0.9631295956    0.5000000000    0.1683529419          0.0007
H819       H    0.9754726652    0.5000000000    0.1305494185          0.0007
H820       H    1.0311101129    0.5000000000    0.1691279449          0.0007
C821       C    1.0050332082    0.5000000000    0.1694987061          0.0007
H822       H    1.0143966694    0.5000000000    0.1340082757          0.0007
C823       C    0.9840193666    0.5000000000    0.2094345489          0.0007
N824       N    0.9835946028    0.5000000000    0.2296145790          0.0007
C825       C    1.0033504155    0.5000000000    0.2502036567          0.0007
C826       C    1.0239552094    0.5000000000    0.2304483904          0.0007
C827       C    1.0243629929    0.5000000000    0.2102664588          0.0007
C828       C    1.0029243420    0.5000000000    0.2703836414          0.0007
H829       H    0.9642471199    0.5000000000    0.1888278534          0.0007
H830       H    1.0449690510    0.5000000000    0.1905125476          0.0007
H831       H    1.0437110676    0.5000000000    0.2510361584          0.0007
N832       N    0.9823365739    0.5000000000    0.2901394995          0.0007
C833       C    0.9819105005    0.5000000000    0.3103194841          0.0007
C834       C    1.0016827472    0.5000000000    0.3309261795          0.0007
C836       C    1.0222724167    0.5000000000    0.3111533410          0.0007
C837       C    1.0243124123    0.5000000000    0.2941869815          0.0007
H838       H    1.0550064128    0.5000000000    0.2855885435          0.0007
H839       H    1.0535291052    0.5000000000    0.3221293588          0.0007
H840       H    0.9503866311    0.5000000000    0.3229120380          0.0007
C841       C    0.9823365739    0.5000000000    0.2901394995          0.0007
N842       N    0.9819105005    0.5000000000    0.3103194841          0.0007
C843       C    1.0016827472    0.5000000000    0.3309261795          0.0007
C844       C    1.0222724167    0.5000000000    0.3111533410          0.0007
C845       C    1.0226966342    0.5000000000    0.2909890271          0.0007
H847       H    0.9625807613    0.5000000000    0.2695504218          0.0007
H848       H    1.0432863038    0.5000000000    0.2712161886          0.0007
H849       H    1.0420276831    0.5000000000    0.3317581350          0.0007
N850       N    0.9806702153    0.5000000000    0.3708620678          0.0007
C851       C    0.9802441418    0.5000000000    0.3910420525          0.0007
C852       C    1.0000000000    0.5000000000    0.4116298205          0.0007
C853       C    1.0206060581    0.5000000000    0.3918759094          0.0007
C854       C    1.0226283099    0.5000000000    0.3748918866          0.0007
H855       H    1.0533406460    0.5000000000    0.3662940859          0.0007
H856       H    1.0518463125    0.5000000000    0.4028343095          0.0007
H857       H    0.9487038839    0.5000000000    0.4036156790          0.0007
C734       C    1.0000000000   -0.0883701795    0.5000000000          0.0007
C735       C    1.0000000000   -0.0953333286    0.5171927578          0.0007
C736       C    1.0000000000   -0.1151353614    0.5185707851          0.0007
C737       C    1.0000000000   -0.1265520381    0.5029675617          0.0007
C738       C    1.0000000000   -0.1175190789    0.4857553097          0.0007
C739       C    1.0000000000   -0.0962275760    0.4839963821          0.0007
C740       C    1.0000000000   -0.1454746467    0.5033145257          0.0007
H741       H    1.0000000000   -0.1255876592    0.5336923874          0.0007
H742       H    1.0000000000   -0.0850706642    0.5308691959          0.0007
C743       C    1.0000000000   -0.0904925505    0.4588213702          0.0007
C744       C    1.0000000000   -0.1297587963    0.4683160755          0.0007
C745       C    1.0000000000   -0.1224910893    0.4484547972          0.0007
C746       C    1.0000000000   -0.0988203271    0.4471665224          0.0007
H747       H    1.0000000000   -0.1482770494    0.4703746094          0.0007
H748       H    1.0000000000   -0.1298115602    0.4265462470          0.0007
H749       H    1.0000000000   -0.0872469052    0.4285363432          0.0007
Br750     Br    1.0000000000   -0.0913282920    0.4556391315          0.0007
O751       O    1.0000000000   -0.1545565058    0.4883369180          0.0007
C752       C    1.0000000000   -0.1689834718    0.5112610212          0.0007
C753       C    1.0000000000   -0.1526147459    0.5168877860          0.0007
C754       C    1.0000000000   -0.1896787362    0.4953915556          0.0007
H755       H    1.0000000000   -0.1512459599    0.5369143663          0.0007
H756       H    1.0000000000   -0.1865984621    0.5209341455          0.0007
H757       H    1.0000000000   -0.1683529419    0.5368704044          0.0007
H758       H    1.0000000000   -0.1305494185    0.5245273348          0.0007
H759       H    1.0000000000   -0.1691279449    0.4688898871          0.0007
C760       C    1.0000000000   -0.1694987061    0.4949667918          0.0007
H761       H    1.0000000000   -0.1340082757    0.4856033306          0.0007
C762       C    1.0000000000   -0.2094345489    0.5159806334          0.0007
N763       N    1.0000000000   -0.2296145790    0.5164053972          0.0007
C764       C    1.0000000000   -0.2502036567    0.4966495845          0.0007
C765       C    1.0000000000   -0.2304483904    0.4760447906          0.0007
C766       C    1.0000000000   -0.2102664588    0.4756370071          0.0007
C767       C    1.0000000000   -0.2703836414    0.4970756580          0.0007
H768       H    1.0000000000   -0.1888278534    0.5357528801          0.0007
H769       H    1.0000000000   -0.1905125476    0.4550309490          0.0007
H770       H    1.0000000000   -0.2510361584    0.4562889324          0.0007
N771       N    1.0000000000   -0.2901394995    0.5176634261          0.0007
C772       C    1.0000000000   -0.3103194841    0.5180894995          0.0007
C773       C    1.0000000000   -0.3309261795    0.4983172528          0.0007
C775       C    1.0000000000   -0.3111533410    0.4777275833          0.0007
C776       C    1.0000000000   -0.2941869815    0.4756875877          0.0007
H777       H    1.0000000000   -0.2855885435    0.4449935872          0.0007
H778       H    1.0000000000   -0.3221293588    0.4464708948          0.0007
H779       H    1.0000000000   -0.3229120380    0.5496133689          0.0007
C780       C    1.0000000000   -0.2901394995    0.5176634261          0.0007
N781       N    1.0000000000   -0.3103194841    0.5180894995          0.0007
C782       C    1.0000000000   -0.3309261795    0.4983172528          0.0007
C783       C    1.0000000000   -0.3111533410    0.4777275833          0.0007
C784       C    1.0000000000   -0.2909890271    0.4773033658          0.0007
H786       H    1.0000000000   -0.2695504218    0.5374192387          0.0007
H787       H    1.0000000000   -0.2712161886    0.4567136962          0.0007
H788       H    1.0000000000   -0.3317581350    0.4579723169          0.0007
N789       N    1.0000000000   -0.3708620678    0.5193297847          0.0007
C790       C    1.0000000000   -0.3910420525    0.5197558582          0.0007
C791       C    1.0000000000   -0.4116298205    0.5000000000          0.0007
C792       C    1.0000000000   -0.3918759094    0.4793939419          0.0007
C793       C    1.0000000000   -0.3748918866    0.4773716901          0.0007
H794       H    1.0000000000   -0.3662940859    0.4466593540          0.0007
H795       H    1.0000000000   -0.4028343095    0.4481536875          0.0007
H796       H    1.0000000000   -0.4036156790    0.5512961161          0.0007
C673       C    1.0000000000    0.0883701795    0.5000000000          0.0007
C674       C    1.0000000000    0.0953333286    0.4828072422          0.0007
C675       C    1.0000000000    0.1151353614    0.4814292149          0.0007
C676       C    1.0000000000    0.1265520381    0.4970324383          0.0007
C677       C    1.0000000000    0.1175190789    0.5142446903          0.0007
C678       C    1.0000000000    0.0962275760    0.5160036179          0.0007
C679       C    1.0000000000    0.1454746467    0.4966854743          0.0007
H680       H    1.0000000000    0.1255876592    0.4663076126          0.0007
H681       H    1.0000000000    0.0850706642    0.4691308041          0.0007
C682       C    1.0000000000    0.0904925505    0.5411786298          0.0007
C683       C    1.0000000000    0.1297587963    0.5316839245          0.0007
C684       C    1.0000000000    0.1224910893    0.5515452028          0.0007
C685       C    1.0000000000    0.0988203271    0.5528334776          0.0007
H686       H    1.0000000000    0.1482770494    0.5296253906          0.0007
H687       H    1.0000000000    0.1298115602    0.5734537530          0.0007
H688       H    1.0000000000    0.0872469052    0.5714636568          0.0007
Br689     Br    1.0000000000    0.0913282920    0.5443608685          0.0007
O690       O    1.0000000000    0.1545565058    0.5116630820          0.0007
C691       C    1.0000000000    0.1689834718    0.4887389788          0.0007
C692       C    1.0000000000    0.1526147459    0.4831122140          0.0007
C693       C    1.0000000000    0.1896787362    0.5046084444          0.0007
H694       H    1.0000000000    0.1512459599    0.4630856337          0.0007
H695       H    1.0000000000    0.1865984621    0.4790658545          0.0007
H696       H    1.0000000000    0.1683529419    0.4631295956          0.0007
H697       H    1.0000000000    0.1305494185    0.4754726652          0.0007
H698       H    1.0000000000    0.1691279449    0.5311101129          0.0007
C699       C    1.0000000000    0.1694987061    0.5050332082          0.0007
H700       H    1.0000000000    0.1340082757    0.5143966694          0.0007
C701       C    1.0000000000    0.2094345489    0.4840193666          0.0007
N702       N    1.0000000000    0.2296145790    0.4835946028          0.0007
C703       C    1.0000000000    0.2502036567    0.5033504155          0.0007
C704       C    1.0000000000    0.2304483904    0.5239552094          0.0007
C705       C    1.0000000000    0.2102664588    0.5243629929          0.0007
C706       C    1.0000000000    0.2703836414    0.5029243420          0.0007
H707       H    1.0000000000    0.1888278534    0.4642471199          0.0007
H708       H    1.0000000000    0.1905125476    0.5449690510          0.0007
H709       H    1.0000000000    0.2510361584    0.5437110676          0.0007
N710       N    1.0000000000    0.2901394995    0.4823365739          0.0007
C711       C    1.0000000000    0.3103194841    0.4819105005          0.0007
C712       C    1.0000000000    0.3309261795    0.5016827472          0.0007
C714       C    1.0000000000    0.3111533410    0.5222724167          0.0007
C715       C    1.0000000000    0.2941869815    0.5243124123          0.0007
H716       H    1.0000000000    0.2855885435    0.5550064128          0.0007
H717       H    1.0000000000    0.3221293588    0.5535291052          0.0007
H718       H    1.0000000000    0.3229120380    0.4503866311          0.0007
C719       C    1.0000000000    0.2901394995    0.4823365739          0.0007
N720       N    1.0000000000    0.3103194841    0.4819105005          0.0007
C721       C    1.0000000000    0.3309261795    0.5016827472          0.0007
C722       C    1.0000000000    0.3111533410    0.5222724167          0.0007
C723       C    1.0000000000    0.2909890271    0.5226966342          0.0007
H725       H    1.0000000000    0.2695504218    0.4625807613          0.0007
H726       H    1.0000000000    0.2712161886    0.5432863038          0.0007
H727       H    1.0000000000    0.3317581350    0.5420276831          0.0007
N728       N    1.0000000000    0.3708620678    0.4806702153          0.0007
C729       C    1.0000000000    0.3910420525    0.4802441418          0.0007
C730       C    1.0000000000    0.4116298205    0.5000000000          0.0007
C731       C    1.0000000000    0.3918759094    0.5206060581          0.0007
C732       C    1.0000000000    0.3748918866    0.5226283099          0.0007
H733       H    1.0000000000    0.3662940859    0.5533406460          0.0007
H734       H    1.0000000000    0.4028343095    0.5518463125          0.0007
H735       H    1.0000000000    0.4036156790    0.4487038839          0.0007
C612       C    0.9116298205   -0.0000000000    0.5000000000          0.0007
C613       C    0.9046666714   -0.0155105300    0.4925828322          0.0007
C614       C    0.8848646386   -0.0167537241    0.4919883342          0.0007
C615       C    0.8734479619   -0.0026772003    0.4987197573          0.0007
C616       C    0.8824809211    0.0128509166    0.5061453351          0.0007
C617       C    0.9037724240    0.0144377417    0.5069041582          0.0007
C618       C    0.8545253533   -0.0029902155    0.4985700727          0.0007
H619       H    0.8744123408   -0.0303957511    0.4854646885          0.0007
H620       H    0.9149293358   -0.0278487952    0.4866826481          0.0007
C621       C    0.9095074495    0.0371495011    0.5177649689          0.0007
C622       C    0.8702412037    0.0285838065    0.5136688359          0.0007
C623       C    0.8775089107    0.0465017554    0.5222372364          0.0007
C624       C    0.9011796729    0.0476639787    0.5227930140          0.0007
H625       H    0.8517229506    0.0267266902    0.5127807589          0.0007
H626       H    0.8701884398    0.0662666605    0.5316888552          0.0007
H627       H    0.9127530948    0.0644712855    0.5308303031          0.0007
Br628     Br    0.9086717080    0.0400203732    0.5191378259          0.0007
O629       O    0.8454434942    0.0105219061    0.5050315974         -0.0681
C630       C    0.8310165282   -0.0101591850    0.4951418565          0.0007
C631       C    0.8473852541   -0.0152353982    0.4927144008          0.0007
C632       C    0.8103212638    0.0041575305    0.5019881398          0.0007
H633       H    0.8487540401   -0.0333024751    0.4840746870          0.0007
H634       H    0.8134015379   -0.0188858412    0.4909687514          0.0007
H635       H    0.8316470581   -0.0332628146    0.4840936527          0.0007
H636       H    0.8694505815   -0.0221274543    0.4894186052          0.0007
H637       H    0.8308720551    0.0280661396    0.5134212865          0.0007
C638       C    0.8305012939    0.0045407332    0.5021713881          0.0007
H639       H    0.8659917243    0.0129880253    0.5062109008          0.0007
C640       C    0.7905654511   -0.0144170061    0.4931057576          0.0007
N641       N    0.7703854210   -0.0148002088    0.4929225093          0.0007
C642       C    0.7497963433    0.0030225936    0.5014454106          0.0007
C643       C    0.7695516096    0.0216113087    0.5103345728          0.0007
C644       C    0.7897335412    0.0219791925    0.5105104957          0.0007
C645       C    0.7296163586    0.0026382094    0.5012615972          0.0007
H646       H    0.8111721466   -0.0322546346    0.4845757665          0.0007
H647       H    0.8094874524    0.0405690480    0.5194002033          0.0007
H648       H    0.7489638416    0.0394341522    0.5188574938          0.0007
N649       N    0.7098605005   -0.0159351457    0.4923797801          0.0007
C650       C    0.6896805159   -0.0163195300    0.4921959668          0.0007
C651       C    0.6690738205    0.0015180985    0.5007259579          0.0007
C653       C    0.6888466590    0.0200931690    0.5096085953          0.0007
C654       C    0.7058130185    0.0219335609    0.5104886746          0.0007
H655       H    0.7144114565    0.0496243028    0.5237304450          0.0007
H656       H    0.6778706412    0.0482915425    0.5230931163          0.0007
H657       H    0.6770879620   -0.0447589420    0.4785961806          0.0007
C658       C    0.7098605005   -0.0159351457    0.4923797801          0.0007
N659       N    0.6896805159   -0.0163195300    0.4921959668          0.0007
C660       C    0.6690738205    0.0015180985    0.5007259579          0.0007
C661       C    0.6888466590    0.0200931690    0.5096085953          0.0007
C662       C    0.7090109729    0.0204758789    0.5097916080          0.0007
H664       H    0.7304495782   -0.0337579481    0.4838568788          0.0007
H665       H    0.7287838114    0.0390509494    0.5186742454          0.0007
H666       H    0.6682418650    0.0379154787    0.5181312609          0.0007
N667       N    0.6291379322   -0.0174384592    0.4916608924          0.0007
C668       C    0.6089579475   -0.0178228435    0.4914770791          0.0007
C669       C    0.5883701795   -0.0000000000    0.5000000000          0.0007
C670       C    0.6081240906    0.0185898555    0.5088897077          0.0007
C671       C    0.6251081134    0.0204142398    0.5097621320          0.0007
H672       H    0.6337059141    0.0481215232    0.5230118127          0.0007
H673       H    0.5971656905    0.0467734029    0.5223671388          0.0007
H674       H    0.5963843210   -0.0462770406    0.4778702227          0.0007
C551       C    1.0883701795   -0.0000000000    0.5000000000          0.0007
C552       C    1.0953333286    0.0092478673    0.4855062817          0.0007
C553       C    1.1151353614    0.0099890988    0.4843445868          0.0007
C554       C    1.1265520381    0.0015962313    0.4974983069          0.0007
C555       C    1.1175190789   -0.0076621219    0.5120084590          0.0007
C556       C    1.0962275760   -0.0086082371    0.5134912579          0.0007
C557       C    1.1454746467    0.0017828608    0.4972058117          0.0007
H558       H    1.1255876592    0.0181229057    0.4715968795          0.0007
H559       H    1.0850706642    0.0166043302    0.4739768666          0.0007
C560       C    1.0904925505   -0.0221497046    0.5347141202          0.0007
C561       C    1.1297587963   -0.0170425672    0.5267099602          0.0007
C562       C    1.1224910893   -0.0277258136    0.5434532760          0.0007
C563       C    1.0988203271   -0.0284187678    0.5445393084          0.0007
H564       H    1.1482770494   -0.0159352959    0.5249745893          0.0007
H565       H    1.1298115602   -0.0395102736    0.5619224686          0.0007
H566       H    1.0872469052   -0.0384398143    0.5602447916          0.0007
Br567     Br    1.0913282920   -0.0238614091    0.5373967888          0.0007
O568       O    1.1545565058   -0.0062734924    0.5098321297          0.0007
C569       C    1.1689834718    0.0060572266    0.4905068128          0.0007
C570       C    1.1526147459    0.0090838251    0.4857633769          0.0007
C571       C    1.1896787362   -0.0024788509    0.5038849785          0.0007
H572       H    1.1512459599    0.0198559863    0.4688807094          0.0007
H573       H    1.1865984621    0.0112603343    0.4823522432          0.0007
H574       H    1.1683529419    0.0198323394    0.4689177698          0.0007
H575       H    1.1305494185    0.0131930864    0.4793231380          0.0007
H576       H    1.1691279449   -0.0167339179    0.5262262296          0.0007
C577       C    1.1694987061   -0.0027073284    0.5042430599          0.0007
H578       H    1.1340082757   -0.0077438704    0.5121365794          0.0007
C579       C    1.2094345489    0.0085958739    0.4865281184          0.0007
N580       N    1.2296145790    0.0088243514    0.4861700370          0.0007
C581       C    1.2502036567   -0.0018021657    0.5028244438          0.0007
C582       C    1.2304483904   -0.0128853440    0.5201945529          0.0007
C583       C    1.2102664588   -0.0131046880    0.5205383197          0.0007
C584       C    1.2703836414   -0.0015729837    0.5024652583          0.0007
H585       H    1.1888278534    0.0192312307    0.4698598574          0.0007
H586       H    1.1905125476   -0.0241885463    0.5379094945          0.0007
H587       H    1.2510361584   -0.0235118856    0.5368489981          0.0007
N588       N    1.2901394995    0.0095010366    0.4851095022          0.0007
C589       C    1.3103194841    0.0097302186    0.4847503168          0.0007
C590       C    1.3309261795   -0.0009051382    0.5014185777          0.0007
C592       C    1.3111533410   -0.0119801813    0.5187759368          0.0007
C593       C    1.2941869815   -0.0130774810    0.5204956796          0.0007
H594       H    1.2855885435   -0.0295875749    0.5463711210          0.0007
H595       H    1.3221293588   -0.0287929412    0.5451257315          0.0007
H596       H    1.3229120380    0.0266866933    0.4581752851          0.0007
C597       C    1.2901394995    0.0095010366    0.4851095022          0.0007
N598       N    1.3103194841    0.0097302186    0.4847503168          0.0007
C599       C    1.3309261795   -0.0009051382    0.5014185777          0.0007
C600       C    1.3111533410   -0.0119801813    0.5187759368          0.0007
C601       C    1.2909890271   -0.0122083650    0.5191335577          0.0007
H603       H    1.2695504218    0.0201275537    0.4684550954          0.0007
H604       H    1.2712161886   -0.0232834080    0.5364909167          0.0007
H605       H    1.3317581350   -0.0226064045    0.5354298831          0.0007
N606       N    1.3708620678    0.0103973595    0.4837047403          0.0007
C607       C    1.3910420525    0.0106265416    0.4833455548          0.0007
C608       C    1.4116298205   -0.0000000000    0.5000000000          0.0007
C609       C    1.3918759094   -0.0110838583    0.5173711748          0.0007
C610       C    1.3748918866   -0.0121716138    0.5190759594          0.0007
H611       H    1.3662940859   -0.0286915703    0.5449668579          0.0007
H612       H    1.4028343095   -0.0278877784    0.5437071154          0.0007
H613       H    1.4036156790    0.0275918315    0.4567567073          0.0007
C490       C    0.0000000000   -0.0883701795    0.0000000000          0.0007
C491       C    0.0121841364   -0.0953333286    0.0121300346          0.0007
C492       C    0.0131607147   -0.1151353614    0.0131022765          0.0007
C493       C    0.0021030470   -0.1265520381    0.0020937087          0.0007
C494       C   -0.0100949046   -0.1175190789   -0.0100500797          0.0007
C495       C   -0.0113414186   -0.0962275760   -0.0112910588          0.0007
C496       C    0.0023489329   -0.1454746467    0.0023385028          0.0007
H497       H    0.0238770679   -0.1255876592    0.0237710453          0.0007
H498       H    0.0218763330   -0.0850706642    0.0217791944          0.0007
C499       C   -0.0291824064   -0.0904925505   -0.0290528262          0.0007
C500       C   -0.0224537136   -0.1297587963   -0.0223540112          0.0007
C501       C   -0.0365289730   -0.1224910893   -0.0363667715          0.0007
C502       C   -0.0374419455   -0.0988203271   -0.0372756901          0.0007
H503       H   -0.0209948750   -0.1482770494   -0.0209016504          0.0007
H504       H   -0.0520550897   -0.1298115602   -0.0518239468          0.0007
H505       H   -0.0506447515   -0.0872469052   -0.0504198710          0.0007
Br506     Br   -0.0314375902   -0.0913282920   -0.0312979963          0.0007
O507       O   -0.0082653745   -0.1545565058   -0.0082286734          0.0007
C508       C    0.0079804427   -0.1689834718    0.0079450067          0.0007
C509       C    0.0119680095   -0.1526147459    0.0119148673          0.0007
C510       C   -0.0032659051   -0.1896787362   -0.0032514033          0.0007
H511       H    0.0261604148   -0.1512459599    0.0260442534          0.0007
H512       H    0.0148355772   -0.1865984621    0.0147697020          0.0007
H513       H    0.0261292600   -0.1683529419    0.0260132369          0.0007
H514       H    0.0173819929   -0.1305494185    0.0173048107          0.0007
H515       H   -0.0220470657   -0.1691279449   -0.0219491690          0.0007
C516       C   -0.0035669260   -0.1694987061   -0.0035510876          0.0007
H517       H   -0.0102026089   -0.1340082757   -0.0101573058          0.0007
C518       C    0.0113251300   -0.2094345489    0.0112748425          0.0007
N519       N    0.0116261510   -0.2296145790    0.0115745268          0.0007
C520       C   -0.0023743672   -0.2502036567   -0.0023638241          0.0007
C521       C   -0.0169765400   -0.2304483904   -0.0169011582          0.0007
C522       C   -0.0172655273   -0.2102664588   -0.0171888623          0.0007
C523       C   -0.0020724181   -0.2703836414   -0.0020632158          0.0007
H524       H    0.0253372946   -0.1888278534    0.0252247881          0.0007
H525       H   -0.0318685960   -0.1905125476   -0.0317270883          0.0007
H526       H   -0.0309770904   -0.2510361584   -0.0308395412          0.0007
N527       N    0.0125176889   -0.2901394995    0.0124621060          0.0007
C528       C    0.0128196380   -0.3103194841    0.0127627143          0.0007
C529       C   -0.0011925266   -0.3309261795   -0.0011872314          0.0007
C531       C   -0.0157839811   -0.3111533410   -0.0157138947          0.0007
C532       C   -0.0172296819   -0.2941869815   -0.0171531761          0.0007
H533       H   -0.0389818578   -0.2855885435   -0.0388087647          0.0007
H534       H   -0.0379349218   -0.3221293588   -0.0377664774          0.0007
H535       H    0.0351599240   -0.3229120380    0.0350038016          0.0007
C536       C    0.0125176889   -0.2901394995    0.0124621060          0.0007
N537       N    0.0128196380   -0.3103194841    0.0127627143          0.0007
C538       C   -0.0011925266   -0.3309261795   -0.0011872314          0.0007
C539       C   -0.0157839811   -0.3111533410   -0.0157138947          0.0007
C540       C   -0.0160846149   -0.2909890271   -0.0160131936          0.0007
H542       H    0.0265182070   -0.2695504218    0.0264004568          0.0007
H543       H   -0.0306760694   -0.2712161886   -0.0305398569          0.0007
H544       H   -0.0297841121   -0.3317581350   -0.0296518602          0.0007
N545       N    0.0136986013   -0.3708620678    0.0136377747          0.0007
C546       C    0.0140005504   -0.3910420525    0.0139383830          0.0007
C547       C   -0.0000000000   -0.4116298205    0.0000000000          0.0007
C548       C   -0.0146030687   -0.3918759094   -0.0145382260          0.0007
C549       C   -0.0160361949   -0.3748918866   -0.0159649886          0.0007
H550       H   -0.0378013648   -0.3662940859   -0.0376335135          0.0007
H551       H   -0.0367423629   -0.4028343095   -0.0365792139          0.0007
H552       H    0.0363524506   -0.4036156790    0.0361910329          0.0007
C429       C    0.0000000000    0.4116298205    0.0000000000          0.0007
C430       C    0.0028911092    0.4046666714    0.0169479322          0.0007
C431       C    0.0031228363    0.3848646386    0.0183063364          0.0007
C432       C    0.0004990209    0.3734479619    0.0029253035          0.0007
C433       C   -0.0023953665    0.3824809211   -0.0140418453          0.0007
C434       C   -0.0026911452    0.4037724240   -0.0157757257          0.0007
C435       C    0.0005573658    0.3545253533    0.0032673268          0.0007
H436       H    0.0056656630    0.3744123408    0.0332126065          0.0007
H437       H    0.0051909192    0.4149293358    0.0304296173          0.0007
C438       C   -0.0069245387    0.4095074495   -0.0405922445          0.0007
C439       C   -0.0053279228    0.3702412037   -0.0312327441          0.0007
C440       C   -0.0086677666    0.3775089107   -0.0508111972          0.0007
C441       C   -0.0088844010    0.4011796729   -0.0520811268          0.0007
H442       H   -0.0049817628    0.3517229506   -0.0292035239          0.0007
H443       H   -0.0123518767    0.3701884398   -0.0724077688          0.0007
H444       H   -0.0120172250    0.4127530948   -0.0704460115          0.0007
Br445     Br   -0.0074596594    0.4086717080   -0.0437291680          0.0007
O446       O   -0.0019612470    0.3454434942   -0.0114969993          0.0007
C447       C    0.0018936370    0.3310165282    0.0111006638          0.0007
C448       C    0.0028398256    0.3473852541    0.0166473033          0.0007
C449       C   -0.0007749493    0.3103212638   -0.0045428200          0.0007
H450       H    0.0062074664    0.3487540401    0.0363887043          0.0007
H451       H    0.0035202556    0.3134015379    0.0206360425          0.0007
H452       H    0.0062000738    0.3316470581    0.0363453684          0.0007
H453       H    0.0041244811    0.3694505815    0.0241780646          0.0007
H454       H   -0.0052314315    0.3308720551   -0.0306671037          0.0007
C455       C   -0.0008463770    0.3305012939   -0.0049615351          0.0007
H456       H   -0.0024209231    0.3659917243   -0.0141916602          0.0007
C457       C    0.0026872801    0.2905654511    0.0157530685          0.0007
N458       N    0.0027587078    0.2703854210    0.0161717837          0.0007
C459       C   -0.0005634010    0.2497963433   -0.0033027054          0.0007
C460       C   -0.0040282733    0.2695516096   -0.0236140863          0.0007
C461       C   -0.0040968456    0.2897335412   -0.0240160629          0.0007
C462       C   -0.0004917531    0.2296163586   -0.0028826993          0.0007
H463       H    0.0060121525    0.3111721466    0.0352437577          0.0007
H464       H   -0.0075619304    0.3094874524   -0.0443286899          0.0007
H465       H   -0.0073503898    0.2489638416   -0.0430886203          0.0007
N466       N    0.0029702561    0.2098605005    0.0174118982          0.0007
C467       C    0.0030419040    0.1896805159    0.0178319044          0.0007
C468       C   -0.0002829683    0.1690738205   -0.0016587848          0.0007
C470       C   -0.0037452973    0.1888466590   -0.0219552566          0.0007
C471       C   -0.0040883400    0.2058130185   -0.0239662026          0.0007
H472       H   -0.0092497987    0.2144114565   -0.0542231194          0.0007
H473       H   -0.0090013768    0.1778706412   -0.0527668487          0.0007
H474       H    0.0083429122    0.1770879620    0.0489068727          0.0007
C475       C    0.0029702561    0.2098605005    0.0174118982          0.0007
N476       N    0.0030419040    0.1896805159    0.0178319044          0.0007
C477       C   -0.0002829683    0.1690738205   -0.0016587848          0.0007
C478       C   -0.0037452973    0.1888466590   -0.0219552566          0.0007
C479       C   -0.0038166331    0.2090109729   -0.0223734333          0.0007
H481       H    0.0062923650    0.2304495782    0.0368863873          0.0007
H482       H   -0.0072789621    0.2287838114   -0.0426699051          0.0007
H483       H   -0.0070673143    0.1682418650   -0.0414292072          0.0007
N484       N    0.0032504686    0.1291379322    0.0190545278          0.0007
C485       C    0.0033221165    0.1089579475    0.0194745340          0.0007
C486       C    0.0000000000    0.0883701795   -0.0000000000          0.0007
C487       C   -0.0034650849    0.1081240906   -0.0203126270          0.0007
C488       C   -0.0038051438    0.1251081134   -0.0223060819          0.0007
H489       H   -0.0089696857    0.1337059141   -0.0525810732          0.0007
H490       H   -0.0087184008    0.0971656905   -0.0511080190          0.0007
H491       H    0.0086258806    0.0963843210    0.0505656574          0.0007
C368       C   -0.0883701795   -0.0000000000    0.0000000000          0.0007
C369       C   -0.0953333286    0.0169633956   -0.0027989512          0.0007
C370       C   -0.1151353614    0.0183230392   -0.0030232917          0.0007
C371       C   -0.1265520381    0.0029279726   -0.0004831139          0.0007
C372       C   -0.1175190789   -0.0140546572    0.0023190109          0.0007
C373       C   -0.0962275760   -0.0157901196    0.0026053613          0.0007
C374       C   -0.1454746467    0.0032703079   -0.0005395991          0.0007
H375       H   -0.1255876592    0.0332429099   -0.0054850623          0.0007
H376       H   -0.0850706642    0.0304573815   -0.0050254516          0.0007
C377       C   -0.0904925505   -0.0406292812    0.0067038096          0.0007
C378       C   -0.1297587963   -0.0312612411    0.0051580881          0.0007
C379       C   -0.1224910893   -0.0508575576    0.0083914698          0.0007
C380       C   -0.0988203271   -0.0521286460    0.0086011987          0.0007
H381       H   -0.1482770494   -0.0292301694    0.0048229623          0.0007
H382       H   -0.1298115602   -0.0724738341    0.0119581438          0.0007
H383       H   -0.0872469052   -0.0705102870    0.0116341596          0.0007
Br384     Br   -0.0913282920   -0.0437690668    0.0072218726          0.0007
O385       O   -0.1545565058   -0.0115074892    0.0018987296          0.0007
C386       C   -0.1689834718    0.0111107921   -0.0018332748          0.0007
C387       C   -0.1526147459    0.0166624924   -0.0027493023          0.0007
C388       C   -0.1896787362   -0.0045469649    0.0007502468          0.0007
H389       H   -0.1512459599    0.0364219056   -0.0060095949          0.0007
H390       H   -0.1865984621    0.0206548709   -0.0034080426          0.0007
H391       H   -0.1683529419    0.0363785302   -0.0060024380          0.0007
H392       H   -0.1305494185    0.0242001248   -0.0039930076          0.0007
H393       H   -0.1691279449   -0.0306950846    0.0050646725          0.0007
C394       C   -0.1694987061   -0.0049660620    0.0008193976          0.0007
H395       H   -0.1340082757   -0.0142046088    0.0023437529          0.0007
C396       C   -0.2094345489    0.0157674417   -0.0026016194          0.0007
N397       N   -0.2296145790    0.0161865389   -0.0026707703          0.0007
C398       C   -0.2502036567   -0.0033057188    0.0005454418          0.0007
C399       C   -0.2304483904   -0.0236356320    0.0038998666          0.0007
C400       C   -0.2102664588   -0.0240379753    0.0039662531          0.0007
C401       C   -0.2703836414   -0.0028853295    0.0004760778          0.0007
H402       H   -0.1888278534    0.0352759143   -0.0058205070          0.0007
H403       H   -0.1905125476   -0.0443691357    0.0073208836          0.0007
H404       H   -0.2510361584   -0.0431279346    0.0071160861          0.0007
N405       N   -0.2901394995    0.0174277849   -0.0028755752          0.0007
C406       C   -0.3103194841    0.0178481743   -0.0029449392          0.0007
C407       C   -0.3309261795   -0.0016602983    0.0002739483          0.0007
C409       C   -0.3111533410   -0.0219752888    0.0036259109          0.0007
C410       C   -0.2941869815   -0.0239880695    0.0039580186          0.0007
H411       H   -0.2855885435   -0.0542725929    0.0089549488          0.0007
H412       H   -0.3221293588   -0.0528149935    0.0087144457          0.0007
H413       H   -0.3229120380    0.0489514956   -0.0080769706          0.0007
C414       C   -0.2901394995    0.0174277849   -0.0028755752          0.0007
N415       N   -0.3103194841    0.0178481743   -0.0029449392          0.0007
C416       C   -0.3309261795   -0.0016602983    0.0002739483          0.0007
C417       C   -0.3111533410   -0.0219752888    0.0036259109          0.0007
C418       C   -0.2909890271   -0.0223938470    0.0036949728          0.0007
H420       H   -0.2695504218    0.0369200427   -0.0060917873          0.0007
H421       H   -0.2712161886   -0.0427088375    0.0070469353          0.0007
H422       H   -0.3317581350   -0.0414670075    0.0068420340          0.0007
N423       N   -0.3708620678    0.0190719133   -0.0031468555          0.0007
C424       C   -0.3910420525    0.0194923027   -0.0032162195          0.0007
C425       C   -0.4116298205   -0.0000000000    0.0000000000          0.0007
C426       C   -0.3918759094   -0.0203311604    0.0033546306          0.0007
C427       C   -0.3748918866   -0.0223264341    0.0036838497          0.0007
H428       H   -0.3662940859   -0.0526290485    0.0086837648          0.0007
H429       H   -0.4028343095   -0.0511546503    0.0084404899          0.0007
H430       H   -0.4036156790    0.0506117939   -0.0083509189          0.0007
C307       C    0.0883701795   -0.0000000000    0.0000000000          0.0007
C308       C    0.0953333286    0.0040571503    0.0167071976          0.0007
C309       C    0.1151353614    0.0043823375    0.0180463065          0.0007
C310       C    0.1265520381    0.0007002858    0.0028837515          0.0007
C311       C    0.1175190789   -0.0033614648   -0.0138423898          0.0007
C312       C    0.0962275760   -0.0037765369   -0.0155516415          0.0007
C313       C    0.1454746467    0.0007821624    0.0032209164          0.0007
H314       H    0.1255876592    0.0079507362    0.0327408424          0.0007
H315       H    0.0850706642    0.0072845189    0.0299973839          0.0007
C316       C    0.0904925505   -0.0097173411   -0.0400156574          0.0007
C317       C    0.1297587963   -0.0074767787   -0.0307891028          0.0007
C318       C    0.1224910893   -0.0121636470   -0.0500894562          0.0007
C319       C    0.0988203271   -0.0124676544   -0.0513413474          0.0007
H320       H    0.1482770494   -0.0069910055   -0.0287887063          0.0007
H321       H    0.1298115602   -0.0173336310   -0.0713792622          0.0007
H322       H    0.0872469052   -0.0168640077   -0.0694453705          0.0007
Br323     Br    0.0913282920   -0.0104682864   -0.0431080228          0.0007
O324       O    0.1545565058   -0.0027522564   -0.0113336916          0.0007
C325       C    0.1689834718    0.0026573780    0.0109429859          0.0007
C326       C    0.1526147459    0.0039851830    0.0164108388          0.0007
C327       C    0.1896787362   -0.0010875016   -0.0044782921          0.0007
H328       H    0.1512459599    0.0087110594    0.0358718258          0.0007
H329       H    0.1865984621    0.0049400437    0.0203429205          0.0007
H330       H    0.1683529419    0.0087006852    0.0358291054          0.0007
H331       H    0.1305494185    0.0057879653    0.0238346305          0.0007
H332       H    0.1691279449   -0.0073413705   -0.0302314969          0.0007
C333       C    0.1694987061   -0.0011877374   -0.0048910596          0.0007
H334       H    0.1340082757   -0.0033973289   -0.0139900767          0.0007
C335       C    0.2094345489    0.0037711130    0.0155293061          0.0007
N336       N    0.2296145790    0.0038713488    0.0159420737          0.0007
C337       C    0.2502036567   -0.0007906317   -0.0032557926          0.0007
C338       C    0.2304483904   -0.0056529550   -0.0232786631          0.0007
C339       C    0.2102664588   -0.0057491838   -0.0236749299          0.0007
C340       C    0.2703836414   -0.0006900868   -0.0028417523          0.0007
H341       H    0.1888278534    0.0084369716    0.0347431424          0.0007
H342       H    0.1905125476   -0.0106118054   -0.0436990289          0.0007
H343       H    0.2510361584   -0.0103149463   -0.0424765737          0.0007
N344       N    0.2901394995    0.0041682187    0.0171645732          0.0007
C345       C    0.3103194841    0.0042687636    0.0175786134          0.0007
C346       C    0.3309261795   -0.0003970950   -0.0016352228          0.0007
C348       C    0.3111533410   -0.0052558492   -0.0216433961          0.0007
C349       C    0.2941869815   -0.0057372478   -0.0236257778          0.0007
H350       H    0.2855885435   -0.0129804240   -0.0534529143          0.0007
H351       H    0.3221293588   -0.0126318087   -0.0520173289          0.0007
H352       H    0.3229120380    0.0117077725    0.0482121815          0.0007
C353       C    0.2901394995    0.0041682187    0.0171645732          0.0007
N354       N    0.3103194841    0.0042687636    0.0175786134          0.0007
C355       C    0.3309261795   -0.0003970950   -0.0016352228          0.0007
C356       C    0.3111533410   -0.0052558492   -0.0216433961          0.0007
C357       C    0.2909890271   -0.0053559562   -0.0220556328          0.0007
H359       H    0.2695504218    0.0088301993    0.0363624395          0.0007
H360       H    0.2712161886   -0.0102147104   -0.0420638061          0.0007
H361       H    0.3317581350   -0.0099177009   -0.0408407316          0.0007
N362       N    0.3708620678    0.0045614464    0.0187838703          0.0007
C363       C    0.3910420525    0.0046619913    0.0191979105          0.0007
C364       C    0.4116298205   -0.0000000000    0.0000000000          0.0007
C365       C    0.3918759094   -0.0048626216   -0.0200240990          0.0007
C366       C    0.3748918866   -0.0053398330   -0.0219892381          0.0007
H367       H    0.3662940859   -0.0125873361   -0.0518341923          0.0007
H368       H    0.4028343095   -0.0122347029   -0.0503820619          0.0007
H369       H    0.4036156790    0.0121048675    0.0498474042          0.0007
C246       C    0.0000000000    0.0000000000   -0.4116298205          0.0007
C247       C   -0.0171927578    0.0000000000   -0.4046666714          0.0007
C248       C   -0.0185707851    0.0000000000   -0.3848646386          0.0007
C249       C   -0.0029675617    0.0000000000   -0.3734479619          0.0007
C250       C    0.0142446903    0.0000000000   -0.3824809211          0.0007
C251       C    0.0160036179    0.0000000000   -0.4037724240          0.0007
C252       C   -0.0033145257    0.0000000000   -0.3545253533          0.0007
H253       H   -0.0336923874    0.0000000000   -0.3744123408          0.0007
H254       H   -0.0308691959    0.0000000000   -0.4149293358          0.0007
C255       C    0.0411786298    0.0000000000   -0.4095074495          0.0007
C256       C    0.0316839245    0.0000000000   -0.3702412037          0.0007
C257       C    0.0515452028    0.0000000000   -0.3775089107          0.0007
C258       C    0.0528334776    0.0000000000   -0.4011796729          0.0007
H259       H    0.0296253906    0.0000000000   -0.3517229506          0.0007
H260       H    0.0734537530    0.0000000000   -0.3701884398          0.0007
H261       H    0.0714636568    0.0000000000   -0.4127530948          0.0007
Br262     Br    0.0443608685    0.0000000000   -0.4086717080          0.0007
O263       O    0.0116630820    0.0000000000   -0.3454434942          0.0007
C264       C   -0.0112610212    0.0000000000   -0.3310165282          0.0007
C265       C   -0.0168877860    0.0000000000   -0.3473852541          0.0007
C266       C    0.0046084444    0.0000000000   -0.3103212638          0.0007
H267       H   -0.0369143663    0.0000000000   -0.3487540401          0.0007
H268       H   -0.0209341455    0.0000000000   -0.3134015379          0.0007
H269       H   -0.0368704044    0.0000000000   -0.3316470581          0.0007
H270       H   -0.0245273348    0.0000000000   -0.3694505815          0.0007
H271       H    0.0311101129    0.0000000000   -0.3308720551          0.0007
C272       C    0.0050332082    0.0000000000   -0.3305012939          0.0007
H273       H    0.0143966694    0.0000000000   -0.3659917243          0.0007
C274       C   -0.0159806334    0.0000000000   -0.2905654511          0.0007
N275       N   -0.0164053972    0.0000000000   -0.2703854210          0.0007
C276       C    0.0033504155    0.0000000000   -0.2497963433          0.0007
C277       C    0.0239552094    0.0000000000   -0.2695516096          0.0007
C278       C    0.0243629929    0.0000000000   -0.2897335412          0.0007
C279       C    0.0029243420    0.0000000000   -0.2296163586          0.0007
H280       H   -0.0357528801    0.0000000000   -0.3111721466          0.0007
H281       H    0.0449690510    0.0000000000   -0.3094874524          0.0007
H282       H    0.0437110676    0.0000000000   -0.2489638416          0.0007
N283       N   -0.0176634261    0.0000000000   -0.2098605005          0.0007
C284       C   -0.0180894995    0.0000000000   -0.1896805159          0.0007
C285       C    0.0016827472    0.0000000000   -0.1690738205          0.0007
C287       C    0.0222724167    0.0000000000   -0.1888466590          0.0007
C288       C    0.0243124123    0.0000000000   -0.2058130185          0.0007
H289       H    0.0550064128    0.0000000000   -0.2144114565          0.0007
H290       H    0.0535291052    0.0000000000   -0.1778706412          0.0007
H291       H   -0.0496133689    0.0000000000   -0.1770879620          0.0007
C292       C   -0.0176634261    0.0000000000   -0.2098605005          0.0007
N293       N   -0.0180894995    0.0000000000   -0.1896805159          0.0007
C294       C    0.0016827472    0.0000000000   -0.1690738205          0.0007
C295       C    0.0222724167    0.0000000000   -0.1888466590          0.0007
C296       C    0.0226966342    0.0000000000   -0.2090109729          0.0007
H298       H   -0.0374192387    0.0000000000   -0.2304495782          0.0007
H299       H    0.0432863038    0.0000000000   -0.2287838114          0.0007
H300       H    0.0420276831    0.0000000000   -0.1682418650          0.0007
N301       N   -0.0193297847    0.0000000000   -0.1291379322          0.0007
C302       C   -0.0197558582    0.0000000000   -0.1089579475          0.0007
C303       C   -0.0000000000    0.0000000000   -0.0883701795          0.0007
C304       C    0.0206060581    0.0000000000   -0.1081240906          0.0007
C305       C    0.0226283099    0.0000000000   -0.1251081134          0.0007
H306       H    0.0533406460    0.0000000000   -0.1337059141          0.0007
H307       H    0.0518463125    0.0000000000   -0.0971656905          0.0007
H308       H   -0.0512961161    0.0000000000   -0.0963843210          0.0007
C185       C   -0.0000000000   -0.0000000000    0.0883701795          0.0007
C186       C   -0.0000000000    0.0171927578    0.0953333286          0.0007
C187       C   -0.0000000000    0.0185707851    0.1151353614          0.0007
C188       C   -0.0000000000    0.0029675617    0.1265520381          0.0007
C189       C    0.0000000000   -0.0142446903    0.1175190789          0.0007
C190       C    0.0000000000   -0.0160036179    0.0962275760          0.0007
C191       C   -0.0000000000    0.0033145257    0.1454746467          0.0007
H192       H   -0.0000000000    0.0336923874    0.1255876592          0.0007
H193       H   -0.0000000000    0.0308691959    0.0850706642          0.0007
C194       C    0.0000000000   -0.0411786298    0.0904925505          0.0007
C195       C    0.0000000000   -0.0316839245    0.1297587963          0.0007
C196       C    0.0000000000   -0.0515452028    0.1224910893          0.0007
C197       C    0.0000000000   -0.0528334776    0.0988203271          0.0007
H198       H    0.0000000000   -0.0296253906    0.1482770494          0.0007
H199       H    0.0000000000   -0.0734537530    0.1298115602          0.0007
H200       H    0.0000000000   -0.0714636568    0.0872469052          0.0007
Br201     Br    0.0000000000   -0.0443608685    0.0913282920          0.0007
O202       O    0.0000000000   -0.0116630820    0.1545565058          0.0007
C203       C   -0.0000000000    0.0112610212    0.1689834718          0.0007
C204       C   -0.0000000000    0.0168877860    0.1526147459          0.0007
C205       C   -0.0000000000   -0.0046084444    0.1896787362          0.0007
H206       H   -0.0000000000    0.0369143663    0.1512459599          0.0007
H207       H   -0.0000000000    0.0209341455    0.1865984621          0.0007
H208       H   -0.0000000000    0.0368704044    0.1683529419          0.0007
H209       H   -0.0000000000    0.0245273348    0.1305494185          0.0007
H210       H    0.0000000000   -0.0311101129    0.1691279449          0.0007
C211       C   -0.0000000000   -0.0050332082    0.1694987061          0.0007
H212       H    0.0000000000   -0.0143966694    0.1340082757          0.0007
C213       C   -0.0000000000    0.0159806334    0.2094345489          0.0007
N214       N   -0.0000000000    0.0164053972    0.2296145790          0.0007
C215       C   -0.0000000000   -0.0033504155    0.2502036567          0.0007
C216       C    0.0000000000   -0.0239552094    0.2304483904          0.0007
C217       C    0.0000000000   -0.0243629929    0.2102664588          0.0007
C218       C   -0.0000000000   -0.0029243420    0.2703836414          0.0007
H219       H   -0.0000000000    0.0357528801    0.1888278534          0.0007
H220       H    0.0000000000   -0.0449690510    0.1905125476          0.0007
H221       H    0.0000000000   -0.0437110676    0.2510361584          0.0007
N222       N   -0.0000000000    0.0176634261    0.2901394995          0.0007
C223       C   -0.0000000000    0.0180894995    0.3103194841          0.0007
C224       C   -0.0000000000   -0.0016827472    0.3309261795          0.0007
C226       C    0.0000000000   -0.0222724167    0.3111533410          0.0007
C227       C    0.0000000000   -0.0243124123    0.2941869815          0.0007
H228       H    0.0000000000   -0.0550064128    0.2855885435          0.0007
H229       H    0.0000000000   -0.0535291052    0.3221293588          0.0007
H230       H   -0.0000000000    0.0496133689    0.3229120380          0.0007
C231       C   -0.0000000000    0.0176634261    0.2901394995          0.0007
N232       N   -0.0000000000    0.0180894995    0.3103194841          0.0007
C233       C   -0.0000000000   -0.0016827472    0.3309261795          0.0007
C234       C    0.0000000000   -0.0222724167    0.3111533410          0.0007
C235       C    0.0000000000   -0.0226966342    0.2909890271          0.0007
H237       H   -0.0000000000    0.0374192387    0.2695504218          0.0007
H238       H    0.0000000000   -0.0432863038    0.2712161886          0.0007
H239       H    0.0000000000   -0.0420276831    0.3317581350          0.0007
N240       N   -0.0000000000    0.0193297847    0.3708620678          0.0007
C241       C   -0.0000000000    0.0197558582    0.3910420525          0.0007
C242       C   -0.0000000000    0.0000000000    0.4116298205          0.0007
C243       C    0.0000000000   -0.0206060581    0.3918759094          0.0007
C244       C    0.0000000000   -0.0226283099    0.3748918866          0.0007
H245       H    0.0000000000   -0.0533406460    0.3662940859          0.0007
H246       H    0.0000000000   -0.0518463125    0.4028343095          0.0007
H247       H   -0.0000000000    0.0512961161    0.4036156790          0.0007
loop_
_geom_bond_atom_site_label_1
_geom_bond_atom_site_label_2
_geom_bond_distance
_geom_bond_site_symmetry_2
_ccdc_geom_bond_type
Zn1          O5 1.942       .   S
Zn1          O6 1.922       .   S
Zn1         O10 1.922       .   S
Zn1         O17 1.922       .   S
Zn2          O5 1.942       .   S
Zn2          O7 1.922       .   S
Zn2          O9 1.922       .   S
Zn2         O13 1.922       .   S
Zn3          O5 1.942       .   S
Zn3          O8 1.922       .   S
Zn3         O11 1.922       .   S
Zn3         O14 1.922       .   S
Zn4          O5 1.942       .   S
Zn4         O12 1.922       .   S
Zn4         O15 1.922       .   S
Zn4         O16 1.922       .   S
O6          C18 1.304       .   A
O7          C19 1.304       .   A
O8          C20 1.304       .   A
O9          C18 1.304       .   A
O10         C20 1.304       .   A
O11         C19 1.304       .   A
O12         C21 1.304       .   A
O13         C22 1.304       .   A
O14         C21 1.304       .   A
O15         C22 1.304       .   A
O16         C23 1.304       .   A
O17         C23 1.304       .   A
C18        C185 1.540       .   S
C19        C307 1.540       .   S
C20        C490 1.540       .   S
C21        C303 1.540       .   S
C22        C486 1.540       .   S
C23        C368 1.540       .   S
Zn24        O28 1.942       .   S
Zn24        O29 1.922       .   S
Zn24        O33 1.922       .   S
Zn24        O40 1.922       .   S
Zn25        O28 1.942       .   S
Zn25        O30 1.922       .   S
Zn25        O32 1.922       .   S
Zn25        O36 1.922       .   S
Zn26        O28 1.942       .   S
Zn26        O31 1.922       .   S
Zn26        O34 1.922       .   S
Zn26        O37 1.922       .   S
Zn27        O28 1.942       .   S
Zn27        O35 1.922       .   S
Zn27        O38 1.922       .   S
Zn27        O39 1.922       .   S
O29         C41 1.304       .   A
O30         C42 1.304       .   A
O31         C43 1.304       .   A
O32         C41 1.304       .   A
O33         C43 1.304       .   A
O34         C42 1.304       .   A
O35         C44 1.304       .   A
O36         C45 1.304       .   A
O37         C44 1.304       .   A
O38         C45 1.304       .   A
O39         C46 1.304       .   A
O40         C46 1.304       .   A
C41        C242 1.540   1_655   S
C42        C734 1.540       .   S
C43        C551 1.540       .   S
C44        C246 1.540   1_656   S
C45        C612 1.540       .   S
C46        C673 1.540       .   S
Zn47        O51 1.942       .   S
Zn47        O52 1.922       .   S
Zn47        O56 1.922       .   S
Zn47        O63 1.922       .   S
Zn48        O51 1.942       .   S
Zn48        O53 1.922       .   S
Zn48        O55 1.922       .   S
Zn48        O59 1.922       .   S
Zn49        O51 1.942       .   S
Zn49        O54 1.922       .   S
Zn49        O57 1.922       .   S
Zn49        O60 1.922       .   S
Zn50        O51 1.942       .   S
Zn50        O58 1.922       .   S
Zn50        O61 1.922       .   S
Zn50        O62 1.922       .   S
O52         C64 1.304       .   A
O53         C65 1.304       .   A
O54         C66 1.304       .   A
O55         C64 1.304       .   A
O56         C66 1.304       .   A
O57         C65 1.304       .   A
O58         C67 1.304       .   A
O59         C68 1.304       .   A
O60         C67 1.304       .   A
O61         C68 1.304       .   A
O62         C69 1.304       .   A
O63         C69 1.304       .   A
C64        C429 1.540   1_655   S
C65        C795 1.540       .   S
C66        C917 1.540       .   S
C67        C547 1.540   1_665   S
C68        C978 1.540       .   S
C69        C856 1.540       .   S
Zn70        O74 1.942       .   S
Zn70        O75 1.922       .   S
Zn70        O79 1.922       .   S
Zn70        O86 1.922       .   S
Zn71        O74 1.942       .   S
Zn71        O76 1.922       .   S
Zn71        O78 1.922       .   S
Zn71        O82 1.922       .   S
Zn72        O74 1.942       .   S
Zn72        O77 1.922       .   S
Zn72        O80 1.922       .   S
Zn72        O83 1.922       .   S
Zn73        O74 1.942       .   S
Zn73        O81 1.922       .   S
Zn73        O84 1.922       .   S
Zn73        O85 1.922       .   S
O75         C87 1.304       .   A
O76         C88 1.304       .   A
O77         C89 1.304       .   A
O78         C87 1.304       .   A
O79         C89 1.304       .   A
O80         C88 1.304       .   A
O81         C90 1.304       .   A
O82         C91 1.304       .   A
O83         C90 1.304       .   A
O84         C91 1.304       .   A
O85         C92 1.304       .   A
O86         C92 1.304       .   A
C87        C730 1.540       .   S
C88       C1039 1.540       .   S
C89        C852 1.540       .   S
C90        C791 1.540   1_565   S
C91        C913 1.540   1_556   S
C92       C1100 1.540       .   S
Zn93        O97 1.942       .   S
Zn93        O98 1.922       .   S
Zn93       O102 1.922       .   S
Zn93       O109 1.922       .   S
Zn94        O97 1.942       .   S
Zn94        O99 1.922       .   S
Zn94       O101 1.922       .   S
Zn94       O105 1.922       .   S
Zn95        O97 1.942       .   S
Zn95       O100 1.922       .   S
Zn95       O103 1.922       .   S
Zn95       O106 1.922       .   S
Zn96        O97 1.942       .   S
Zn96       O104 1.922       .   S
Zn96       O107 1.922       .   S
Zn96       O108 1.922       .   S
O98        C110 1.304       .   A
O99        C111 1.304       .   A
O100       C112 1.304       .   A
O101       C110 1.304       .   A
O102       C112 1.304       .   A
O103       C111 1.304       .   A
O104       C113 1.304       .   A
O105       C114 1.304       .   A
O106       C113 1.304       .   A
O107       C114 1.304       .   A
O108       C115 1.304       .   A
O109       C115 1.304       .   A
C110       C364 1.540   1_565   S
C111      C1161 1.540       .   S
C112      C1344 1.540       .   S
C113       C425 1.540   1_665   S
C114      C1340 1.540       .   S
C115      C1222 1.540       .   S
Zn116      O120 1.942       .   S
Zn116      O121 1.922       .   S
Zn116      O125 1.922       .   S
Zn116      O132 1.922       .   S
Zn117      O120 1.942       .   S
Zn117      O122 1.922       .   S
Zn117      O124 1.922       .   S
Zn117      O128 1.922       .   S
Zn118      O120 1.942       .   S
Zn118      O123 1.922       .   S
Zn118      O126 1.922       .   S
Zn118      O129 1.922       .   S
Zn119      O120 1.942       .   S
Zn119      O127 1.922       .   S
Zn119      O130 1.922       .   S
Zn119      O131 1.922       .   S
O121       C133 1.304       .   A
O122       C134 1.304       .   A
O123       C135 1.304       .   A
O124       C133 1.304       .   A
O125       C135 1.304       .   A
O126       C134 1.304       .   A
O127       C136 1.304       .   A
O128       C137 1.304       .   A
O129       C136 1.304       .   A
O130       C137 1.304       .   A
O131       C138 1.304       .   A
O132       C138 1.304       .   A
C133       C608 1.540   1_465   S
C134      C1279 1.540   1_556   S
C135      C1466 1.540       .   S
C136       C669 1.540   1_565   S
C137      C1405 1.540       .   S
C138      C1218 1.540       .   S
Zn139      O143 1.942       .   S
Zn139      O144 1.922       .   S
Zn139      O148 1.922       .   S
Zn139      O155 1.922       .   S
Zn140      O143 1.942       .   S
Zn140      O145 1.922       .   S
Zn140      O147 1.922       .   S
Zn140      O151 1.922       .   S
Zn141      O143 1.942       .   S
Zn141      O146 1.922       .   S
Zn141      O149 1.922       .   S
Zn141      O152 1.922       .   S
Zn142      O143 1.942       .   S
Zn142      O150 1.922       .   S
Zn142      O153 1.922       .   S
Zn142      O154 1.922       .   S
O144       C156 1.304       .   A
O145       C157 1.304       .   A
O146       C158 1.304       .   A
O147       C156 1.304       .   A
O148       C158 1.304       .   A
O149       C157 1.304       .   A
O150       C159 1.304       .   A
O151       C160 1.304       .   A
O152       C159 1.304       .   A
O153       C160 1.304       .   A
O154       C161 1.304       .   A
O155       C161 1.304       .   A
C156       C974 1.540   1_455   S
C157      C1283 1.540   1_545   S
C158      C1588 1.540       .   S
C159      C1035 1.540       .   S
C160      C1527 1.540       .   S
C161      C1401 1.540       .   S
Zn162      O166 1.942       .   S
Zn162      O167 1.922       .   S
Zn162      O171 1.922       .   S
Zn162      O178 1.922       .   S
Zn163      O166 1.942       .   S
Zn163      O168 1.922       .   S
Zn163      O170 1.922       .   S
Zn163      O174 1.922       .   S
Zn164      O166 1.942       .   S
Zn164      O169 1.922       .   S
Zn164      O172 1.922       .   S
Zn164      O175 1.922       .   S
Zn165      O166 1.942       .   S
Zn165      O173 1.922       .   S
Zn165      O176 1.922       .   S
Zn165      O177 1.922       .   S
O167       C179 1.304       .   A
O168       C180 1.304       .   A
O169       C181 1.304       .   A
O170       C179 1.304       .   A
O171       C181 1.304       .   A
O172       C180 1.304       .   A
O173       C182 1.304       .   A
O174       C183 1.304       .   A
O175       C182 1.304       .   A
O176       C183 1.304       .   A
O177       C184 1.304       .   A
O178       C184 1.304       .   A
C179      C1096 1.540   1_455   S
C180      C1462 1.540   1_545   S
C181      C1584 1.540       .   S
C182      C1157 1.540       .   S
C183      C1645 1.540   1_556   S
C184      C1523 1.540       .   S
C1588     C1589 0.014       .   A
C1588     C1593 0.014       .   A
C1589     C1590 0.015       .   A
C1589     H1596 0.013       .   A
C1590     C1591 0.015       .   A
C1590     H1595 0.014       .   A
C1591     C1592 0.015       .   A
C1591     C1594 0.014       .   A
C1592     C1593 0.016       .   A
C1592     C1598 0.016       .   A
C1593     C1597 0.020       .   A
C1594     O1605 0.013       .   A
C1594     C1607 0.012       .   A
C1594     H1615 0.016       .   A
C1597     C1600 0.011       .   A
C1597    Br1604 0.003       .   A
C1598     C1599 0.016       .   A
C1598     H1601 0.014       .   A
C1599     C1600 0.018       .   A
C1599     H1602 0.018       .   A
C1600     H1603 0.017       .   A
O1605     C1614 0.012       .   A
C1606     C1607 0.013       .   A
C1606     H1610 0.015       .   A
C1606     H1611 0.020       .   A
C1606     C1614 0.012       .   A
C1607     H1609 0.015       .   A
C1607     H1612 0.018       .   A
C1608     C1614 0.015       .   A
C1608     C1616 0.022       .   A
C1608     C1620 0.022       .   A
H1613     C1614 0.020       .   A
C1616     N1617 0.015       .   A
C1616     H1622 0.022       .   A
N1617     C1618 0.022       .   A
C1618     C1619 0.022       .   A
C1618     C1621 0.015       .   A
C1619     C1620 0.015       .   A
C1619     H1624 0.022       .   A
C1620     H1623 0.022       .   A
C1621     N1625 0.022       .   A
C1621     C1630 0.024       .   A
C1621     C1634 0.022       .   A
C1621     C1638 0.022       .   A
N1625     C1626 0.015       .   A
C1626     C1627 0.022       .   A
C1626     H1633 0.026       .   A
C1627     C1629 0.022       .   A
C1629     C1630 0.013       .   A
C1629     H1632 0.025       .   A
C1630     H1631 0.024       .   A
C1634     N1635 0.015       .   A
C1634     H1640 0.022       .   A
N1635     C1636 0.022       .   A
C1636     C1637 0.022       .   A
C1637     C1638 0.015       .   A
C1637     H1642 0.022       .   A
C1638     H1641 0.022       .   A
N1643     C1644 0.015       .   A
C1644     C1645 0.022       .   A
C1644     H1650 0.026       .   A
C1645     C1646 0.022       .   A
C1646     C1647 0.013       .   A
C1646     H1649 0.025       .   A
C1647     H1648 0.024       .   A
C1527     C1528 0.014       .   A
C1527     C1532 0.014       .   A
C1528     C1529 0.015       .   A
C1528     H1535 0.013       .   A
C1529     C1530 0.015       .   A
C1529     H1534 0.014       .   A
C1530     C1531 0.015       .   A
C1530     C1533 0.014       .   A
C1531     C1532 0.016       .   A
C1531     C1537 0.016       .   A
C1532     C1536 0.020       .   A
C1533     O1544 0.013       .   A
C1533     C1546 0.012       .   A
C1533     H1554 0.016       .   A
C1536     C1539 0.011       .   A
C1536    Br1543 0.003       .   A
C1537     C1538 0.016       .   A
C1537     H1540 0.014       .   A
C1538     C1539 0.018       .   A
C1538     H1541 0.018       .   A
C1539     H1542 0.017       .   A
O1544     C1553 0.012       .   A
C1545     C1546 0.013       .   A
C1545     H1549 0.015       .   A
C1545     H1550 0.020       .   A
C1545     C1553 0.012       .   A
C1546     H1548 0.015       .   A
C1546     H1551 0.018       .   A
C1547     C1553 0.015       .   A
C1547     C1555 0.022       .   A
C1547     C1559 0.022       .   A
H1552     C1553 0.020       .   A
C1555     N1556 0.015       .   A
C1555     H1561 0.022       .   A
N1556     C1557 0.022       .   A
C1557     C1558 0.022       .   A
C1557     C1560 0.015       .   A
C1558     C1559 0.015       .   A
C1558     H1563 0.022       .   A
C1559     H1562 0.022       .   A
C1560     N1564 0.022       .   A
C1560     C1569 0.024       .   A
C1560     C1573 0.022       .   A
C1560     C1577 0.022       .   A
N1564     C1565 0.015       .   A
C1565     C1566 0.022       .   A
C1565     H1572 0.026       .   A
C1566     C1568 0.022       .   A
C1568     C1569 0.013       .   A
C1568     H1571 0.025       .   A
C1569     H1570 0.024       .   A
C1573     N1574 0.015       .   A
C1573     H1579 0.022       .   A
N1574     C1575 0.022       .   A
C1575     C1576 0.022       .   A
C1576     C1577 0.015       .   A
C1576     H1581 0.022       .   A
C1577     H1580 0.022       .   A
N1582     C1583 0.015       .   A
C1583     C1584 0.022       .   A
C1583     H1589 0.026       .   A
C1584     C1585 0.022       .   A
C1585     C1586 0.013       .   A
C1585     H1588 0.025       .   A
C1586     H1587 0.024       .   A
C1466     C1467 0.014       .   A
C1466     C1471 0.014       .   A
C1467     C1468 0.015       .   A
C1467     H1474 0.013       .   A
C1468     C1469 0.015       .   A
C1468     H1473 0.014       .   A
C1469     C1470 0.015       .   A
C1469     C1472 0.014       .   A
C1470     C1471 0.016       .   A
C1470     C1476 0.016       .   A
C1471     C1475 0.020       .   A
C1472     O1483 0.013       .   A
C1472     C1485 0.012       .   A
C1472     H1493 0.016       .   A
C1475     C1478 0.011       .   A
C1475    Br1482 0.003       .   A
C1476     C1477 0.016       .   A
C1476     H1479 0.014       .   A
C1477     C1478 0.018       .   A
C1477     H1480 0.018       .   A
C1478     H1481 0.017       .   A
O1483     C1492 0.012       .   A
C1484     C1485 0.013       .   A
C1484     H1488 0.015       .   A
C1484     H1489 0.020       .   A
C1484     C1492 0.012       .   A
C1485     H1487 0.015       .   A
C1485     H1490 0.018       .   A
C1486     C1492 0.015       .   A
C1486     C1494 0.022       .   A
C1486     C1498 0.022       .   A
H1491     C1492 0.020       .   A
C1494     N1495 0.015       .   A
C1494     H1500 0.022       .   A
N1495     C1496 0.022       .   A
C1496     C1497 0.022       .   A
C1496     C1499 0.015       .   A
C1497     C1498 0.015       .   A
C1497     H1502 0.022       .   A
C1498     H1501 0.022       .   A
C1499     N1503 0.022       .   A
C1499     C1508 0.024       .   A
C1499     C1512 0.022       .   A
C1499     C1516 0.022       .   A
N1503     C1504 0.015       .   A
C1504     C1505 0.022       .   A
C1504     H1511 0.026       .   A
C1505     C1507 0.022       .   A
C1507     C1508 0.013       .   A
C1507     H1510 0.025       .   A
C1508     H1509 0.024       .   A
C1512     N1513 0.015       .   A
C1512     H1518 0.022       .   A
N1513     C1514 0.022       .   A
C1514     C1515 0.022       .   A
C1515     C1516 0.015       .   A
C1515     H1520 0.022       .   A
C1516     H1519 0.022       .   A
N1521     C1522 0.015       .   A
C1522     C1523 0.022       .   A
C1522     H1528 0.026       .   A
C1523     C1524 0.022       .   A
C1524     C1525 0.013       .   A
C1524     H1527 0.025       .   A
C1525     H1526 0.024       .   A
C1405     C1406 0.014       .   A
C1405     C1410 0.014       .   A
C1406     C1407 0.015       .   A
C1406     H1413 0.013       .   A
C1407     C1408 0.015       .   A
C1407     H1412 0.014       .   A
C1408     C1409 0.015       .   A
C1408     C1411 0.014       .   A
C1409     C1410 0.016       .   A
C1409     C1415 0.016       .   A
C1410     C1414 0.020       .   A
C1411     O1422 0.013       .   A
C1411     C1424 0.012       .   A
C1411     H1432 0.016       .   A
C1414     C1417 0.011       .   A
C1414    Br1421 0.003       .   A
C1415     C1416 0.016       .   A
C1415     H1418 0.014       .   A
C1416     C1417 0.018       .   A
C1416     H1419 0.018       .   A
C1417     H1420 0.017       .   A
O1422     C1431 0.012       .   A
C1423     C1424 0.013       .   A
C1423     H1427 0.015       .   A
C1423     H1428 0.020       .   A
C1423     C1431 0.012       .   A
C1424     H1426 0.015       .   A
C1424     H1429 0.018       .   A
C1425     C1431 0.015       .   A
C1425     C1433 0.022       .   A
C1425     C1437 0.022       .   A
H1430     C1431 0.020       .   A
C1433     N1434 0.015       .   A
C1433     H1439 0.022       .   A
N1434     C1435 0.022       .   A
C1435     C1436 0.022       .   A
C1435     C1438 0.015       .   A
C1436     C1437 0.015       .   A
C1436     H1441 0.022       .   A
C1437     H1440 0.022       .   A
C1438     N1442 0.022       .   A
C1438     C1447 0.024       .   A
C1438     C1451 0.022       .   A
C1438     C1455 0.022       .   A
N1442     C1443 0.015       .   A
C1443     C1444 0.022       .   A
C1443     H1450 0.026       .   A
C1444     C1446 0.022       .   A
C1446     C1447 0.013       .   A
C1446     H1449 0.025       .   A
C1447     H1448 0.024       .   A
C1451     N1452 0.015       .   A
C1451     H1457 0.022       .   A
N1452     C1453 0.022       .   A
C1453     C1454 0.022       .   A
C1454     C1455 0.015       .   A
C1454     H1459 0.022       .   A
C1455     H1458 0.022       .   A
N1460     C1461 0.015       .   A
C1461     C1462 0.022       .   A
C1461     H1467 0.026       .   A
C1462     C1463 0.022       .   A
C1463     C1464 0.013       .   A
C1463     H1466 0.025       .   A
C1464     H1465 0.024       .   A
C1344     C1345 0.014       .   A
C1344     C1349 0.014       .   A
C1345     C1346 0.015       .   A
C1345     H1352 0.013       .   A
C1346     C1347 0.015       .   A
C1346     H1351 0.014       .   A
C1347     C1348 0.015       .   A
C1347     C1350 0.014       .   A
C1348     C1349 0.016       .   A
C1348     C1354 0.016       .   A
C1349     C1353 0.020       .   A
C1350     O1361 0.013       .   A
C1350     C1363 0.012       .   A
C1350     H1371 0.016       .   A
C1353     C1356 0.011       .   A
C1353    Br1360 0.003       .   A
C1354     C1355 0.016       .   A
C1354     H1357 0.014       .   A
C1355     C1356 0.018       .   A
C1355     H1358 0.018       .   A
C1356     H1359 0.017       .   A
O1361     C1370 0.012       .   A
C1362     C1363 0.013       .   A
C1362     H1366 0.015       .   A
C1362     H1367 0.020       .   A
C1362     C1370 0.012       .   A
C1363     H1365 0.015       .   A
C1363     H1368 0.018       .   A
C1364     C1370 0.015       .   A
C1364     C1372 0.022       .   A
C1364     C1376 0.022       .   A
H1369     C1370 0.020       .   A
C1372     N1373 0.015       .   A
C1372     H1378 0.022       .   A
N1373     C1374 0.022       .   A
C1374     C1375 0.022       .   A
C1374     C1377 0.015       .   A
C1375     C1376 0.015       .   A
C1375     H1380 0.022       .   A
C1376     H1379 0.022       .   A
C1377     N1381 0.022       .   A
C1377     C1386 0.024       .   A
C1377     C1390 0.022       .   A
C1377     C1394 0.022       .   A
N1381     C1382 0.015       .   A
C1382     C1383 0.022       .   A
C1382     H1389 0.026       .   A
C1383     C1385 0.022       .   A
C1385     C1386 0.013       .   A
C1385     H1388 0.025       .   A
C1386     H1387 0.024       .   A
C1390     N1391 0.015       .   A
C1390     H1396 0.022       .   A
N1391     C1392 0.022       .   A
C1392     C1393 0.022       .   A
C1393     C1394 0.015       .   A
C1393     H1398 0.022       .   A
C1394     H1397 0.022       .   A
N1399     C1400 0.015       .   A
C1400     C1401 0.022       .   A
C1400     H1406 0.026       .   A
C1401     C1402 0.022       .   A
C1402     C1403 0.013       .   A
C1402     H1405 0.025       .   A
C1403     H1404 0.024       .   A
C1283     C1284 0.014       .   A
C1283     C1288 0.014       .   A
C1284     C1285 0.015       .   A
C1284     H1291 0.013       .   A
C1285     C1286 0.015       .   A
C1285     H1290 0.014       .   A
C1286     C1287 0.015       .   A
C1286     C1289 0.014       .   A
C1287     C1288 0.016       .   A
C1287     C1293 0.016       .   A
C1288     C1292 0.020       .   A
C1289     O1300 0.013       .   A
C1289     C1302 0.012       .   A
C1289     H1310 0.016       .   A
C1292     C1295 0.011       .   A
C1292    Br1299 0.003       .   A
C1293     C1294 0.016       .   A
C1293     H1296 0.014       .   A
C1294     C1295 0.018       .   A
C1294     H1297 0.018       .   A
C1295     H1298 0.017       .   A
O1300     C1309 0.012       .   A
C1301     C1302 0.013       .   A
C1301     H1305 0.015       .   A
C1301     H1306 0.020       .   A
C1301     C1309 0.012       .   A
C1302     H1304 0.015       .   A
C1302     H1307 0.018       .   A
C1303     C1309 0.015       .   A
C1303     C1311 0.022       .   A
C1303     C1315 0.022       .   A
H1308     C1309 0.020       .   A
C1311     N1312 0.015       .   A
C1311     H1317 0.022       .   A
N1312     C1313 0.022       .   A
C1313     C1314 0.022       .   A
C1313     C1316 0.015       .   A
C1314     C1315 0.015       .   A
C1314     H1319 0.022       .   A
C1315     H1318 0.022       .   A
C1316     N1320 0.022       .   A
C1316     C1325 0.024       .   A
C1316     C1329 0.022       .   A
C1316     C1333 0.022       .   A
N1320     C1321 0.015       .   A
C1321     C1322 0.022       .   A
C1321     H1328 0.026       .   A
C1322     C1324 0.022       .   A
C1324     C1325 0.013       .   A
C1324     H1327 0.025       .   A
C1325     H1326 0.024       .   A
C1329     N1330 0.015       .   A
C1329     H1335 0.022       .   A
N1330     C1331 0.022       .   A
C1331     C1332 0.022       .   A
C1332     C1333 0.015       .   A
C1332     H1337 0.022       .   A
C1333     H1336 0.022       .   A
N1338     C1339 0.015       .   A
C1339     C1340 0.022       .   A
C1339     H1345 0.026       .   A
C1340     C1341 0.022       .   A
C1341     C1342 0.013       .   A
C1341     H1344 0.025       .   A
C1342     H1343 0.024       .   A
C1222     C1223 0.014       .   A
C1222     C1227 0.014       .   A
C1223     C1224 0.015       .   A
C1223     H1230 0.013       .   A
C1224     C1225 0.015       .   A
C1224     H1229 0.014       .   A
C1225     C1226 0.015       .   A
C1225     C1228 0.014       .   A
C1226     C1227 0.016       .   A
C1226     C1232 0.016       .   A
C1227     C1231 0.020       .   A
C1228     O1239 0.013       .   A
C1228     C1241 0.012       .   A
C1228     H1249 0.016       .   A
C1231     C1234 0.011       .   A
C1231    Br1238 0.003       .   A
C1232     C1233 0.016       .   A
C1232     H1235 0.014       .   A
C1233     C1234 0.018       .   A
C1233     H1236 0.018       .   A
C1234     H1237 0.017       .   A
O1239     C1248 0.012       .   A
C1240     C1241 0.013       .   A
C1240     H1244 0.015       .   A
C1240     H1245 0.020       .   A
C1240     C1248 0.012       .   A
C1241     H1243 0.015       .   A
C1241     H1246 0.018       .   A
C1242     C1248 0.015       .   A
C1242     C1250 0.022       .   A
C1242     C1254 0.022       .   A
H1247     C1248 0.020       .   A
C1250     N1251 0.015       .   A
C1250     H1256 0.022       .   A
N1251     C1252 0.022       .   A
C1252     C1253 0.022       .   A
C1252     C1255 0.015       .   A
C1253     C1254 0.015       .   A
C1253     H1258 0.022       .   A
C1254     H1257 0.022       .   A
C1255     N1259 0.022       .   A
C1255     C1264 0.024       .   A
C1255     C1268 0.022       .   A
C1255     C1272 0.022       .   A
N1259     C1260 0.015       .   A
C1260     C1261 0.022       .   A
C1260     H1267 0.026       .   A
C1261     C1263 0.022       .   A
C1263     C1264 0.013       .   A
C1263     H1266 0.025       .   A
C1264     H1265 0.024       .   A
C1268     N1269 0.015       .   A
C1268     H1274 0.022       .   A
N1269     C1270 0.022       .   A
C1270     C1271 0.022       .   A
C1271     C1272 0.015       .   A
C1271     H1276 0.022       .   A
C1272     H1275 0.022       .   A
N1277     C1278 0.015       .   A
C1278     C1279 0.022       .   A
C1278     H1284 0.026       .   A
C1279     C1280 0.022       .   A
C1280     C1281 0.013       .   A
C1280     H1283 0.025       .   A
C1281     H1282 0.024       .   A
C1161     C1162 0.014       .   A
C1161     C1166 0.014       .   A
C1162     C1163 0.015       .   A
C1162     H1169 0.013       .   A
C1163     C1164 0.015       .   A
C1163     H1168 0.014       .   A
C1164     C1165 0.015       .   A
C1164     C1167 0.014       .   A
C1165     C1166 0.016       .   A
C1165     C1171 0.016       .   A
C1166     C1170 0.020       .   A
C1167     O1178 0.013       .   A
C1167     C1180 0.012       .   A
C1167     H1188 0.016       .   A
C1170     C1173 0.011       .   A
C1170    Br1177 0.003       .   A
C1171     C1172 0.016       .   A
C1171     H1174 0.014       .   A
C1172     C1173 0.018       .   A
C1172     H1175 0.018       .   A
C1173     H1176 0.017       .   A
O1178     C1187 0.012       .   A
C1179     C1180 0.013       .   A
C1179     H1183 0.015       .   A
C1179     H1184 0.020       .   A
C1179     C1187 0.012       .   A
C1180     H1182 0.015       .   A
C1180     H1185 0.018       .   A
C1181     C1187 0.015       .   A
C1181     C1189 0.022       .   A
C1181     C1193 0.022       .   A
H1186     C1187 0.020       .   A
C1189     N1190 0.015       .   A
C1189     H1195 0.022       .   A
N1190     C1191 0.022       .   A
C1191     C1192 0.022       .   A
C1191     C1194 0.015       .   A
C1192     C1193 0.015       .   A
C1192     H1197 0.022       .   A
C1193     H1196 0.022       .   A
C1194     N1198 0.022       .   A
C1194     C1203 0.024       .   A
C1194     C1207 0.022       .   A
C1194     C1211 0.022       .   A
N1198     C1199 0.015       .   A
C1199     C1200 0.022       .   A
C1199     H1206 0.026       .   A
C1200     C1202 0.022       .   A
C1202     C1203 0.013       .   A
C1202     H1205 0.025       .   A
C1203     H1204 0.024       .   A
C1207     N1208 0.015       .   A
C1207     H1213 0.022       .   A
N1208     C1209 0.022       .   A
C1209     C1210 0.022       .   A
C1210     C1211 0.015       .   A
C1210     H1215 0.022       .   A
C1211     H1214 0.022       .   A
N1216     C1217 0.015       .   A
C1217     C1218 0.022       .   A
C1217     H1223 0.026       .   A
C1218     C1219 0.022       .   A
C1219     C1220 0.013       .   A
C1219     H1222 0.025       .   A
C1220     H1221 0.024       .   A
C1100     C1101 0.014       .   A
C1100     C1105 0.014       .   A
C1101     C1102 0.015       .   A
C1101     H1108 0.013       .   A
C1102     C1103 0.015       .   A
C1102     H1107 0.014       .   A
C1103     C1104 0.015       .   A
C1103     C1106 0.014       .   A
C1104     C1105 0.016       .   A
C1104     C1110 0.016       .   A
C1105     C1109 0.020       .   A
C1106     O1117 0.013       .   A
C1106     C1119 0.012       .   A
C1106     H1127 0.016       .   A
C1109     C1112 0.011       .   A
C1109    Br1116 0.003       .   A
C1110     C1111 0.016       .   A
C1110     H1113 0.014       .   A
C1111     C1112 0.018       .   A
C1111     H1114 0.018       .   A
C1112     H1115 0.017       .   A
O1117     C1126 0.012       .   A
C1118     C1119 0.013       .   A
C1118     H1122 0.015       .   A
C1118     H1123 0.020       .   A
C1118     C1126 0.012       .   A
C1119     H1121 0.015       .   A
C1119     H1124 0.018       .   A
C1120     C1126 0.015       .   A
C1120     C1128 0.022       .   A
C1120     C1132 0.022       .   A
H1125     C1126 0.020       .   A
C1128     N1129 0.015       .   A
C1128     H1134 0.022       .   A
N1129     C1130 0.022       .   A
C1130     C1131 0.022       .   A
C1130     C1133 0.015       .   A
C1131     C1132 0.015       .   A
C1131     H1136 0.022       .   A
C1132     H1135 0.022       .   A
C1133     N1137 0.022       .   A
C1133     C1142 0.024       .   A
C1133     C1146 0.022       .   A
C1133     C1150 0.022       .   A
N1137     C1138 0.015       .   A
C1138     C1139 0.022       .   A
C1138     H1145 0.026       .   A
C1139     C1141 0.022       .   A
C1141     C1142 0.013       .   A
C1141     H1144 0.025       .   A
C1142     H1143 0.024       .   A
C1146     N1147 0.015       .   A
C1146     H1152 0.022       .   A
N1147     C1148 0.022       .   A
C1148     C1149 0.022       .   A
C1149     C1150 0.015       .   A
C1149     H1154 0.022       .   A
C1150     H1153 0.022       .   A
N1155     C1156 0.015       .   A
C1156     C1157 0.022       .   A
C1156     H1162 0.026       .   A
C1157     C1158 0.022       .   A
C1158     C1159 0.013       .   A
C1158     H1161 0.025       .   A
C1159     H1160 0.024       .   A
C1039     C1040 0.014       .   A
C1039     C1044 0.014       .   A
C1040     C1041 0.015       .   A
C1040     H1047 0.013       .   A
C1041     C1042 0.015       .   A
C1041     H1046 0.014       .   A
C1042     C1043 0.015       .   A
C1042     C1045 0.014       .   A
C1043     C1044 0.016       .   A
C1043     C1049 0.016       .   A
C1044     C1048 0.020       .   A
C1045     O1056 0.013       .   A
C1045     C1058 0.012       .   A
C1045     H1066 0.016       .   A
C1048     C1051 0.011       .   A
C1048    Br1055 0.003       .   A
C1049     C1050 0.016       .   A
C1049     H1052 0.014       .   A
C1050     C1051 0.018       .   A
C1050     H1053 0.018       .   A
C1051     H1054 0.017       .   A
O1056     C1065 0.012       .   A
C1057     C1058 0.013       .   A
C1057     H1061 0.015       .   A
C1057     H1062 0.020       .   A
C1057     C1065 0.012       .   A
C1058     H1060 0.015       .   A
C1058     H1063 0.018       .   A
C1059     C1065 0.015       .   A
C1059     C1067 0.022       .   A
C1059     C1071 0.022       .   A
H1064     C1065 0.020       .   A
C1067     N1068 0.015       .   A
C1067     H1073 0.022       .   A
N1068     C1069 0.022       .   A
C1069     C1070 0.022       .   A
C1069     C1072 0.015       .   A
C1070     C1071 0.015       .   A
C1070     H1075 0.022       .   A
C1071     H1074 0.022       .   A
C1072     N1076 0.022       .   A
C1072     C1081 0.024       .   A
C1072     C1085 0.022       .   A
C1072     C1089 0.022       .   A
N1076     C1077 0.015       .   A
C1077     C1078 0.022       .   A
C1077     H1084 0.026       .   A
C1078     C1080 0.022       .   A
C1080     C1081 0.013       .   A
C1080     H1083 0.025       .   A
C1081     H1082 0.024       .   A
C1085     N1086 0.015       .   A
C1085     H1091 0.022       .   A
N1086     C1087 0.022       .   A
C1087     C1088 0.022       .   A
C1088     C1089 0.015       .   A
C1088     H1093 0.022       .   A
C1089     H1092 0.022       .   A
N1094     C1095 0.015       .   A
C1095     C1096 0.022       .   A
C1095     H1101 0.026       .   A
C1096     C1097 0.022       .   A
C1097     C1098 0.013       .   A
C1097     H1100 0.025       .   A
C1098     H1099 0.024       .   A
C978       C979 0.014       .   A
C978       C983 0.014       .   A
C979       C980 0.015       .   A
C979       H986 0.013       .   A
C980       C981 0.015       .   A
C980       H985 0.014       .   A
C981       C982 0.015       .   A
C981       C984 0.014       .   A
C982       C983 0.016       .   A
C982       C988 0.016       .   A
C983       C987 0.020       .   A
C984       O995 0.013       .   A
C984       C997 0.012       .   A
C984      H1005 0.016       .   A
C987       C990 0.011       .   A
C987      Br994 0.003       .   A
C988       C989 0.016       .   A
C988       H991 0.014       .   A
C989       C990 0.018       .   A
C989       H992 0.018       .   A
C990       H993 0.017       .   A
O995      C1004 0.012       .   A
C996       C997 0.013       .   A
C996      H1000 0.015       .   A
C996      H1001 0.020       .   A
C996      C1004 0.012       .   A
C997       H999 0.015       .   A
C997      H1002 0.018       .   A
C998      C1004 0.015       .   A
C998      C1006 0.022       .   A
C998      C1010 0.022       .   A
H1003     C1004 0.020       .   A
C1006     N1007 0.015       .   A
C1006     H1012 0.022       .   A
N1007     C1008 0.022       .   A
C1008     C1009 0.022       .   A
C1008     C1011 0.015       .   A
C1009     C1010 0.015       .   A
C1009     H1014 0.022       .   A
C1010     H1013 0.022       .   A
C1011     N1015 0.022       .   A
C1011     C1020 0.024       .   A
C1011     C1024 0.022       .   A
C1011     C1028 0.022       .   A
N1015     C1016 0.015       .   A
C1016     C1017 0.022       .   A
C1016     H1023 0.026       .   A
C1017     C1019 0.022       .   A
C1019     C1020 0.013       .   A
C1019     H1022 0.025       .   A
C1020     H1021 0.024       .   A
C1024     N1025 0.015       .   A
C1024     H1030 0.022       .   A
N1025     C1026 0.022       .   A
C1026     C1027 0.022       .   A
C1027     C1028 0.015       .   A
C1027     H1032 0.022       .   A
C1028     H1031 0.022       .   A
N1033     C1034 0.015       .   A
C1034     C1035 0.022       .   A
C1034     H1040 0.026       .   A
C1035     C1036 0.022       .   A
C1036     C1037 0.013       .   A
C1036     H1039 0.025       .   A
C1037     H1038 0.024       .   A
C917       C918 0.014       .   A
C917       C922 0.014       .   A
C918       C919 0.015       .   A
C918       H925 0.013       .   A
C919       C920 0.015       .   A
C919       H924 0.014       .   A
C920       C921 0.015       .   A
C920       C923 0.014       .   A
C921       C922 0.016       .   A
C921       C927 0.016       .   A
C922       C926 0.020       .   A
C923       O934 0.013       .   A
C923       C936 0.012       .   A
C923       H944 0.016       .   A
C926       C929 0.011       .   A
C926      Br933 0.003       .   A
C927       C928 0.016       .   A
C927       H930 0.014       .   A
C928       C929 0.018       .   A
C928       H931 0.018       .   A
C929       H932 0.017       .   A
O934       C943 0.012       .   A
C935       C936 0.013       .   A
C935       H939 0.015       .   A
C935       H940 0.020       .   A
C935       C943 0.012       .   A
C936       H938 0.015       .   A
C936       H941 0.018       .   A
C937       C943 0.015       .   A
C937       C945 0.022       .   A
C937       C949 0.022       .   A
H942       C943 0.020       .   A
C945       N946 0.015       .   A
C945       H951 0.022       .   A
N946       C947 0.022       .   A
C947       C948 0.022       .   A
C947       C950 0.015       .   A
C948       C949 0.015       .   A
C948       H953 0.022       .   A
C949       H952 0.022       .   A
C950       N954 0.022       .   A
C950       C959 0.024       .   A
C950       C963 0.022       .   A
C950       C967 0.022       .   A
N954       C955 0.015       .   A
C955       C956 0.022       .   A
C955       H962 0.026       .   A
C956       C958 0.022       .   A
C958       C959 0.013       .   A
C958       H961 0.025       .   A
C959       H960 0.024       .   A
C963       N964 0.015       .   A
C963       H969 0.022       .   A
N964       C965 0.022       .   A
C965       C966 0.022       .   A
C966       C967 0.015       .   A
C966       H971 0.022       .   A
C967       H970 0.022       .   A
N972       C973 0.015       .   A
C973       C974 0.022       .   A
C973       H979 0.026       .   A
C974       C975 0.022       .   A
C975       C976 0.013       .   A
C975       H978 0.025       .   A
C976       H977 0.024       .   A
C856       C857 0.014       .   A
C856       C861 0.014       .   A
C857       C858 0.015       .   A
C857       H864 0.013       .   A
C858       C859 0.015       .   A
C858       H863 0.014       .   A
C859       C860 0.015       .   A
C859       C862 0.014       .   A
C860       C861 0.016       .   A
C860       C866 0.016       .   A
C861       C865 0.020       .   A
C862       O873 0.013       .   A
C862       C875 0.012       .   A
C862       H883 0.016       .   A
C865       C868 0.011       .   A
C865      Br872 0.003       .   A
C866       C867 0.016       .   A
C866       H869 0.014       .   A
C867       C868 0.018       .   A
C867       H870 0.018       .   A
C868       H871 0.017       .   A
O873       C882 0.012       .   A
C874       C875 0.013       .   A
C874       H878 0.015       .   A
C874       H879 0.020       .   A
C874       C882 0.012       .   A
C875       H877 0.015       .   A
C875       H880 0.018       .   A
C876       C882 0.015       .   A
C876       C884 0.022       .   A
C876       C888 0.022       .   A
H881       C882 0.020       .   A
C884       N885 0.015       .   A
C884       H890 0.022       .   A
N885       C886 0.022       .   A
C886       C887 0.022       .   A
C886       C889 0.015       .   A
C887       C888 0.015       .   A
C887       H892 0.022       .   A
C888       H891 0.022       .   A
C889       N893 0.022       .   A
C889       C898 0.024       .   A
C889       C902 0.022       .   A
C889       C906 0.022       .   A
N893       C894 0.015       .   A
C894       C895 0.022       .   A
C894       H901 0.026       .   A
C895       C897 0.022       .   A
C897       C898 0.013       .   A
C897       H900 0.025       .   A
C898       H899 0.024       .   A
C902       N903 0.015       .   A
C902       H908 0.022       .   A
N903       C904 0.022       .   A
C904       C905 0.022       .   A
C905       C906 0.015       .   A
C905       H910 0.022       .   A
C906       H909 0.022       .   A
N911       C912 0.015       .   A
C912       C913 0.022       .   A
C912       H918 0.026       .   A
C913       C914 0.022       .   A
C914       C915 0.013       .   A
C914       H917 0.025       .   A
C915       H916 0.024       .   A
C795       C796 0.014       .   A
C795       C800 0.014       .   A
C796       C797 0.015       .   A
C796       H803 0.013       .   A
C797       C798 0.015       .   A
C797       H802 0.014       .   A
C798       C799 0.015       .   A
C798       C801 0.014       .   A
C799       C800 0.016       .   A
C799       C805 0.016       .   A
C800       C804 0.020       .   A
C801       O812 0.013       .   A
C801       C814 0.012       .   A
C801       H822 0.016       .   A
C804       C807 0.011       .   A
C804      Br811 0.003       .   A
C805       C806 0.016       .   A
C805       H808 0.014       .   A
C806       C807 0.018       .   A
C806       H809 0.018       .   A
C807       H810 0.017       .   A
O812       C821 0.012       .   A
C813       C814 0.013       .   A
C813       H817 0.015       .   A
C813       H818 0.020       .   A
C813       C821 0.012       .   A
C814       H816 0.015       .   A
C814       H819 0.018       .   A
C815       C821 0.015       .   A
C815       C823 0.022       .   A
C815       C827 0.022       .   A
H820       C821 0.020       .   A
C823       N824 0.015       .   A
C823       H829 0.022       .   A
N824       C825 0.022       .   A
C825       C826 0.022       .   A
C825       C828 0.015       .   A
C826       C827 0.015       .   A
C826       H831 0.022       .   A
C827       H830 0.022       .   A
C828       N832 0.022       .   A
C828       C837 0.024       .   A
C828       C841 0.022       .   A
C828       C845 0.022       .   A
N832       C833 0.015       .   A
C833       C834 0.022       .   A
C833       H840 0.026       .   A
C834       C836 0.022       .   A
C836       C837 0.013       .   A
C836       H839 0.025       .   A
C837       H838 0.024       .   A
C841       N842 0.015       .   A
C841       H847 0.022       .   A
N842       C843 0.022       .   A
C843       C844 0.022       .   A
C844       C845 0.015       .   A
C844       H849 0.022       .   A
C845       H848 0.022       .   A
N850       C851 0.015       .   A
C851       C852 0.022       .   A
C851       H857 0.026       .   A
C852       C853 0.022       .   A
C853       C854 0.013       .   A
C853       H856 0.025       .   A
C854       H855 0.024       .   A
C734       C735 0.014       .   A
C734       C739 0.014       .   A
C735       C736 0.015       .   A
C735       H742 0.013       .   A
C736       C737 0.015       .   A
C736       H741 0.014       .   A
C737       C738 0.015       .   A
C737       C740 0.014       .   A
C738       C739 0.016       .   A
C738       C744 0.016       .   A
C739       C743 0.020       .   A
C740       O751 0.013       .   A
C740       C753 0.012       .   A
C740       H761 0.016       .   A
C743       C746 0.011       .   A
C743      Br750 0.003       .   A
C744       C745 0.016       .   A
C744       H747 0.014       .   A
C745       C746 0.018       .   A
C745       H748 0.018       .   A
C746       H749 0.017       .   A
O751       C760 0.012       .   A
C752       C753 0.013       .   A
C752       H756 0.015       .   A
C752       H757 0.020       .   A
C752       C760 0.012       .   A
C753       H755 0.015       .   A
C753       H758 0.018       .   A
C754       C760 0.015       .   A
C754       C762 0.022       .   A
C754       C766 0.022       .   A
H759       C760 0.020       .   A
C762       N763 0.015       .   A
C762       H768 0.022       .   A
N763       C764 0.022       .   A
C764       C765 0.022       .   A
C764       C767 0.015       .   A
C765       C766 0.015       .   A
C765       H770 0.022       .   A
C766       H769 0.022       .   A
C767       N771 0.022       .   A
C767       C776 0.024       .   A
C767       C780 0.022       .   A
C767       C784 0.022       .   A
N771       C772 0.015       .   A
C772       C773 0.022       .   A
C772       H779 0.026       .   A
C773       C775 0.022       .   A
C775       C776 0.013       .   A
C775       H778 0.025       .   A
C776       H777 0.024       .   A
C780       N781 0.015       .   A
C780       H786 0.022       .   A
N781       C782 0.022       .   A
C782       C783 0.022       .   A
C783       C784 0.015       .   A
C783       H788 0.022       .   A
C784       H787 0.022       .   A
N789       C790 0.015       .   A
C790       C791 0.022       .   A
C790       H796 0.026       .   A
C791       C792 0.022       .   A
C792       C793 0.013       .   A
C792       H795 0.025       .   A
C793       H794 0.024       .   A
C673       C674 0.014       .   A
C673       C678 0.014       .   A
C674       C675 0.015       .   A
C674       H681 0.013       .   A
C675       C676 0.015       .   A
C675       H680 0.014       .   A
C676       C677 0.015       .   A
C676       C679 0.014       .   A
C677       C678 0.016       .   A
C677       C683 0.016       .   A
C678       C682 0.020       .   A
C679       O690 0.013       .   A
C679       C692 0.012       .   A
C679       H700 0.016       .   A
C682       C685 0.011       .   A
C682      Br689 0.003       .   A
C683       C684 0.016       .   A
C683       H686 0.014       .   A
C684       C685 0.018       .   A
C684       H687 0.018       .   A
C685       H688 0.017       .   A
O690       C699 0.012       .   A
C691       C692 0.013       .   A
C691       H695 0.015       .   A
C691       H696 0.020       .   A
C691       C699 0.012       .   A
C692       H694 0.015       .   A
C692       H697 0.018       .   A
C693       C699 0.015       .   A
C693       C701 0.022       .   A
C693       C705 0.022       .   A
H698       C699 0.020       .   A
C701       N702 0.015       .   A
C701       H707 0.022       .   A
N702       C703 0.022       .   A
C703       C704 0.022       .   A
C703       C706 0.015       .   A
C704       C705 0.015       .   A
C704       H709 0.022       .   A
C705       H708 0.022       .   A
C706       N710 0.022       .   A
C706       C715 0.024       .   A
C706       C719 0.022       .   A
C706       C723 0.022       .   A
N710       C711 0.015       .   A
C711       C712 0.022       .   A
C711       H718 0.026       .   A
C712       C714 0.022       .   A
C714       C715 0.013       .   A
C714       H717 0.025       .   A
C715       H716 0.024       .   A
C719       N720 0.015       .   A
C719       H725 0.022       .   A
N720       C721 0.022       .   A
C721       C722 0.022       .   A
C722       C723 0.015       .   A
C722       H727 0.022       .   A
C723       H726 0.022       .   A
N728       C729 0.015       .   A
C729       C730 0.022       .   A
C729       H735 0.026       .   A
C730       C731 0.022       .   A
C731       C732 0.013       .   A
C731       H734 0.025       .   A
C732       H733 0.024       .   A
C612       C613 0.014       .   A
C612       C617 0.014       .   A
C613       C614 0.015       .   A
C613       H620 0.013       .   A
C614       C615 0.015       .   A
C614       H619 0.014       .   A
C615       C616 0.015       .   A
C615       C618 0.014       .   A
C616       C617 0.016       .   A
C616       C622 0.016       .   A
C617       C621 0.020       .   A
C618       O629 0.013       .   A
C618       C631 0.012       .   A
C618       H639 0.016       .   A
C621       C624 0.011       .   A
C621      Br628 0.003       .   A
C622       C623 0.016       .   A
C622       H625 0.014       .   A
C623       C624 0.018       .   A
C623       H626 0.018       .   A
C624       H627 0.017       .   A
O629       C638 0.012       .   A
C630       C631 0.013       .   A
C630       H634 0.015       .   A
C630       H635 0.020       .   A
C630       C638 0.012       .   A
C631       H633 0.015       .   A
C631       H636 0.018       .   A
C632       C638 0.015       .   A
C632       C640 0.022       .   A
C632       C644 0.022       .   A
H637       C638 0.020       .   A
C640       N641 0.015       .   A
C640       H646 0.022       .   A
N641       C642 0.022       .   A
C642       C643 0.022       .   A
C642       C645 0.015       .   A
C643       C644 0.015       .   A
C643       H648 0.022       .   A
C644       H647 0.022       .   A
C645       N649 0.022       .   A
C645       C654 0.024       .   A
C645       C658 0.022       .   A
C645       C662 0.022       .   A
N649       C650 0.015       .   A
C650       C651 0.022       .   A
C650       H657 0.026       .   A
C651       C653 0.022       .   A
C653       C654 0.013       .   A
C653       H656 0.025       .   A
C654       H655 0.024       .   A
C658       N659 0.015       .   A
C658       H664 0.022       .   A
N659       C660 0.022       .   A
C660       C661 0.022       .   A
C661       C662 0.015       .   A
C661       H666 0.022       .   A
C662       H665 0.022       .   A
N667       C668 0.015       .   A
C668       C669 0.022       .   A
C668       H674 0.026       .   A
C669       C670 0.022       .   A
C670       C671 0.013       .   A
C670       H673 0.025       .   A
C671       H672 0.024       .   A
C551       C552 0.014       .   A
C551       C556 0.014       .   A
C552       C553 0.015       .   A
C552       H559 0.013       .   A
C553       C554 0.015       .   A
C553       H558 0.014       .   A
C554       C555 0.015       .   A
C554       C557 0.014       .   A
C555       C556 0.016       .   A
C555       C561 0.016       .   A
C556       C560 0.020       .   A
C557       O568 0.013       .   A
C557       C570 0.012       .   A
C557       H578 0.016       .   A
C560       C563 0.011       .   A
C560      Br567 0.003       .   A
C561       C562 0.016       .   A
C561       H564 0.014       .   A
C562       C563 0.018       .   A
C562       H565 0.018       .   A
C563       H566 0.017       .   A
O568       C577 0.012       .   A
C569       C570 0.013       .   A
C569       H573 0.015       .   A
C569       H574 0.020       .   A
C569       C577 0.012       .   A
C570       H572 0.015       .   A
C570       H575 0.018       .   A
C571       C577 0.015       .   A
C571       C579 0.022       .   A
C571       C583 0.022       .   A
H576       C577 0.020       .   A
C579       N580 0.015       .   A
C579       H585 0.022       .   A
N580       C581 0.022       .   A
C581       C582 0.022       .   A
C581       C584 0.015       .   A
C582       C583 0.015       .   A
C582       H587 0.022       .   A
C583       H586 0.022       .   A
C584       N588 0.022       .   A
C584       C593 0.024       .   A
C584       C597 0.022       .   A
C584       C601 0.022       .   A
N588       C589 0.015       .   A
C589       C590 0.022       .   A
C589       H596 0.026       .   A
C590       C592 0.022       .   A
C592       C593 0.013       .   A
C592       H595 0.025       .   A
C593       H594 0.024       .   A
C597       N598 0.015       .   A
C597       H603 0.022       .   A
N598       C599 0.022       .   A
C599       C600 0.022       .   A
C600       C601 0.015       .   A
C600       H605 0.022       .   A
C601       H604 0.022       .   A
N606       C607 0.015       .   A
C607       C608 0.022       .   A
C607       H613 0.026       .   A
C608       C609 0.022       .   A
C609       C610 0.013       .   A
C609       H612 0.025       .   A
C610       H611 0.024       .   A
C490       C491 0.014       .   A
C490       C495 0.014       .   A
C491       C492 0.015       .   A
C491       H498 0.013       .   A
C492       C493 0.015       .   A
C492       H497 0.014       .   A
C493       C494 0.015       .   A
C493       C496 0.014       .   A
C494       C495 0.016       .   A
C494       C500 0.016       .   A
C495       C499 0.020       .   A
C496       O507 0.013       .   A
C496       C509 0.012       .   A
C496       H517 0.016       .   A
C499       C502 0.011       .   A
C499      Br506 0.003       .   A
C500       C501 0.016       .   A
C500       H503 0.014       .   A
C501       C502 0.018       .   A
C501       H504 0.018       .   A
C502       H505 0.017       .   A
O507       C516 0.012       .   A
C508       C509 0.013       .   A
C508       H512 0.015       .   A
C508       H513 0.020       .   A
C508       C516 0.012       .   A
C509       H511 0.015       .   A
C509       H514 0.018       .   A
C510       C516 0.015       .   A
C510       C518 0.022       .   A
C510       C522 0.022       .   A
H515       C516 0.020       .   A
C518       N519 0.015       .   A
C518       H524 0.022       .   A
N519       C520 0.022       .   A
C520       C521 0.022       .   A
C520       C523 0.015       .   A
C521       C522 0.015       .   A
C521       H526 0.022       .   A
C522       H525 0.022       .   A
C523       N527 0.022       .   A
C523       C532 0.024       .   A
C523       C536 0.022       .   A
C523       C540 0.022       .   A
N527       C528 0.015       .   A
C528       C529 0.022       .   A
C528       H535 0.026       .   A
C529       C531 0.022       .   A
C531       C532 0.013       .   A
C531       H534 0.025       .   A
C532       H533 0.024       .   A
C536       N537 0.015       .   A
C536       H542 0.022       .   A
N537       C538 0.022       .   A
C538       C539 0.022       .   A
C539       C540 0.015       .   A
C539       H544 0.022       .   A
C540       H543 0.022       .   A
N545       C546 0.015       .   A
C546       C547 0.022       .   A
C546       H552 0.026       .   A
C547       C548 0.022       .   A
C548       C549 0.013       .   A
C548       H551 0.025       .   A
C549       H550 0.024       .   A
C429       C430 0.014       .   A
C429       C434 0.014       .   A
C430       C431 0.015       .   A
C430       H437 0.013       .   A
C431       C432 0.015       .   A
C431       H436 0.014       .   A
C432       C433 0.015       .   A
C432       C435 0.014       .   A
C433       C434 0.016       .   A
C433       C439 0.016       .   A
C434       C438 0.020       .   A
C435       O446 0.013       .   A
C435       C448 0.012       .   A
C435       H456 0.016       .   A
C438       C441 0.011       .   A
C438      Br445 0.003       .   A
C439       C440 0.016       .   A
C439       H442 0.014       .   A
C440       C441 0.018       .   A
C440       H443 0.018       .   A
C441       H444 0.017       .   A
O446       C455 0.012       .   A
C447       C448 0.013       .   A
C447       H451 0.015       .   A
C447       H452 0.020       .   A
C447       C455 0.012       .   A
C448       H450 0.015       .   A
C448       H453 0.018       .   A
C449       C455 0.015       .   A
C449       C457 0.022       .   A
C449       C461 0.022       .   A
H454       C455 0.020       .   A
C457       N458 0.015       .   A
C457       H463 0.022       .   A
N458       C459 0.022       .   A
C459       C460 0.022       .   A
C459       C462 0.015       .   A
C460       C461 0.015       .   A
C460       H465 0.022       .   A
C461       H464 0.022       .   A
C462       N466 0.022       .   A
C462       C471 0.024       .   A
C462       C475 0.022       .   A
C462       C479 0.022       .   A
N466       C467 0.015       .   A
C467       C468 0.022       .   A
C467       H474 0.026       .   A
C468       C470 0.022       .   A
C470       C471 0.013       .   A
C470       H473 0.025       .   A
C471       H472 0.024       .   A
C475       N476 0.015       .   A
C475       H481 0.022       .   A
N476       C477 0.022       .   A
C477       C478 0.022       .   A
C478       C479 0.015       .   A
C478       H483 0.022       .   A
C479       H482 0.022       .   A
N484       C485 0.015       .   A
C485       C486 0.022       .   A
C485       H491 0.026       .   A
C486       C487 0.022       .   A
C487       C488 0.013       .   A
C487       H490 0.025       .   A
C488       H489 0.024       .   A
C368       C369 0.014       .   A
C368       C373 0.014       .   A
C369       C370 0.015       .   A
C369       H376 0.013       .   A
C370       C371 0.015       .   A
C370       H375 0.014       .   A
C371       C372 0.015       .   A
C371       C374 0.014       .   A
C372       C373 0.016       .   A
C372       C378 0.016       .   A
C373       C377 0.020       .   A
C374       O385 0.013       .   A
C374       C387 0.012       .   A
C374       H395 0.016       .   A
C377       C380 0.011       .   A
C377      Br384 0.003       .   A
C378       C379 0.016       .   A
C378       H381 0.014       .   A
C379       C380 0.018       .   A
C379       H382 0.018       .   A
C380       H383 0.017       .   A
O385       C394 0.012       .   A
C386       C387 0.013       .   A
C386       H390 0.015       .   A
C386       H391 0.020       .   A
C386       C394 0.012       .   A
C387       H389 0.015       .   A
C387       H392 0.018       .   A
C388       C394 0.015       .   A
C388       C396 0.022       .   A
C388       C400 0.022       .   A
H393       C394 0.020       .   A
C396       N397 0.015       .   A
C396       H402 0.022       .   A
N397       C398 0.022       .   A
C398       C399 0.022       .   A
C398       C401 0.015       .   A
C399       C400 0.015       .   A
C399       H404 0.022       .   A
C400       H403 0.022       .   A
C401       N405 0.022       .   A
C401       C410 0.024       .   A
C401       C414 0.022       .   A
C401       C418 0.022       .   A
N405       C406 0.015       .   A
C406       C407 0.022       .   A
C406       H413 0.026       .   A
C407       C409 0.022       .   A
C409       C410 0.013       .   A
C409       H412 0.025       .   A
C410       H411 0.024       .   A
C414       N415 0.015       .   A
C414       H420 0.022       .   A
N415       C416 0.022       .   A
C416       C417 0.022       .   A
C417       C418 0.015       .   A
C417       H422 0.022       .   A
C418       H421 0.022       .   A
N423       C424 0.015       .   A
C424       C425 0.022       .   A
C424       H430 0.026       .   A
C425       C426 0.022       .   A
C426       C427 0.013       .   A
C426       H429 0.025       .   A
C427       H428 0.024       .   A
C307       C308 0.014       .   A
C307       C312 0.014       .   A
C308       C309 0.015       .   A
C308       H315 0.013       .   A
C309       C310 0.015       .   A
C309       H314 0.014       .   A
C310       C311 0.015       .   A
C310       C313 0.014       .   A
C311       C312 0.016       .   A
C311       C317 0.016       .   A
C312       C316 0.020       .   A
C313       O324 0.013       .   A
C313       C326 0.012       .   A
C313       H334 0.016       .   A
C316       C319 0.011       .   A
C316      Br323 0.003       .   A
C317       C318 0.016       .   A
C317       H320 0.014       .   A
C318       C319 0.018       .   A
C318       H321 0.018       .   A
C319       H322 0.017       .   A
O324       C333 0.012       .   A
C325       C326 0.013       .   A
C325       H329 0.015       .   A
C325       H330 0.020       .   A
C325       C333 0.012       .   A
C326       H328 0.015       .   A
C326       H331 0.018       .   A
C327       C333 0.015       .   A
C327       C335 0.022       .   A
C327       C339 0.022       .   A
H332       C333 0.020       .   A
C335       N336 0.015       .   A
C335       H341 0.022       .   A
N336       C337 0.022       .   A
C337       C338 0.022       .   A
C337       C340 0.015       .   A
C338       C339 0.015       .   A
C338       H343 0.022       .   A
C339       H342 0.022       .   A
C340       N344 0.022       .   A
C340       C349 0.024       .   A
C340       C353 0.022       .   A
C340       C357 0.022       .   A
N344       C345 0.015       .   A
C345       C346 0.022       .   A
C345       H352 0.026       .   A
C346       C348 0.022       .   A
C348       C349 0.013       .   A
C348       H351 0.025       .   A
C349       H350 0.024       .   A
C353       N354 0.015       .   A
C353       H359 0.022       .   A
N354       C355 0.022       .   A
C355       C356 0.022       .   A
C356       C357 0.015       .   A
C356       H361 0.022       .   A
C357       H360 0.022       .   A
N362       C363 0.015       .   A
C363       C364 0.022       .   A
C363       H369 0.026       .   A
C364       C365 0.022       .   A
C365       C366 0.013       .   A
C365       H368 0.025       .   A
C366       H367 0.024       .   A
C246       C247 0.014       .   A
C246       C251 0.014       .   A
C247       C248 0.015       .   A
C247       H254 0.013       .   A
C248       C249 0.015       .   A
C248       H253 0.014       .   A
C249       C250 0.015       .   A
C249       C252 0.014       .   A
C250       C251 0.016       .   A
C250       C256 0.016       .   A
C251       C255 0.020       .   A
C252       O263 0.013       .   A
C252       C265 0.012       .   A
C252       H273 0.016       .   A
C255       C258 0.011       .   A
C255      Br262 0.003       .   A
C256       C257 0.016       .   A
C256       H259 0.014       .   A
C257       C258 0.018       .   A
C257       H260 0.018       .   A
C258       H261 0.017       .   A
O263       C272 0.012       .   A
C264       C265 0.013       .   A
C264       H268 0.015       .   A
C264       H269 0.020       .   A
C264       C272 0.012       .   A
C265       H267 0.015       .   A
C265       H270 0.018       .   A
C266       C272 0.015       .   A
C266       C274 0.022       .   A
C266       C278 0.022       .   A
H271       C272 0.020       .   A
C274       N275 0.015       .   A
C274       H280 0.022       .   A
N275       C276 0.022       .   A
C276       C277 0.022       .   A
C276       C279 0.015       .   A
C277       C278 0.015       .   A
C277       H282 0.022       .   A
C278       H281 0.022       .   A
C279       N283 0.022       .   A
C279       C288 0.024       .   A
C279       C292 0.022       .   A
C279       C296 0.022       .   A
N283       C284 0.015       .   A
C284       C285 0.022       .   A
C284       H291 0.026       .   A
C285       C287 0.022       .   A
C287       C288 0.013       .   A
C287       H290 0.025       .   A
C288       H289 0.024       .   A
C292       N293 0.015       .   A
C292       H298 0.022       .   A
N293       C294 0.022       .   A
C294       C295 0.022       .   A
C295       C296 0.015       .   A
C295       H300 0.022       .   A
C296       H299 0.022       .   A
N301       C302 0.015       .   A
C302       C303 0.022       .   A
C302       H308 0.026       .   A
C303       C304 0.022       .   A
C304       C305 0.013       .   A
C304       H307 0.025       .   A
C305       H306 0.024       .   A
C185       C186 0.014       .   A
C185       C190 0.014       .   A
C186       C187 0.015       .   A
C186       H193 0.013       .   A
C187       C188 0.015       .   A
C187       H192 0.014       .   A
C188       C189 0.015       .   A
C188       C191 0.014       .   A
C189       C190 0.016       .   A
C189       C195 0.016       .   A
C190       C194 0.020       .   A
C191       O202 0.013       .   A
C191       C204 0.012       .   A
C191       H212 0.016       .   A
C194       C197 0.011       .   A
C194      Br201 0.003       .   A
C195       C196 0.016       .   A
C195       H198 0.014       .   A
C196       C197 0.018       .   A
C196       H199 0.018       .   A
C197       H200 0.017       .   A
O202       C211 0.012       .   A
C203       C204 0.013       .   A
C203       H207 0.015       .   A
C203       H208 0.020       .   A
C203       C211 0.012       .   A
C204       H206 0.015       .   A
C204       H209 0.018       .   A
C205       C211 0.015       .   A
C205       C213 0.022       .   A
C205       C217 0.022       .   A
H210       C211 0.020       .   A
C213       N214 0.015       .   A
C213       H219 0.022       .   A
N214       C215 0.022       .   A
C215       C216 0.022       .   A
C215       C218 0.015       .   A
C216       C217 0.015       .   A
C216       H221 0.022       .   A
C217       H220 0.022       .   A
C218       N222 0.022       .   A
C218       C227 0.024       .   A
C218       C231 0.022       .   A
C218       C235 0.022       .   A
N222       C223 0.015       .   A
C223       C224 0.022       .   A
C223       H230 0.026       .   A
C224       C226 0.022       .   A
C226       C227 0.013       .   A
C226       H229 0.025       .   A
C227       H228 0.024       .   A
C231       N232 0.015       .   A
C231       H237 0.022       .   A
N232       C233 0.022       .   A
C233       C234 0.022       .   A
C234       C235 0.015       .   A
C234       H239 0.022       .   A
C235       H238 0.022       .   A
N240       C241 0.015       .   A
C241       C242 0.022       .   A
C241       H247 0.026       .   A
C242       C243 0.022       .   A
C243       C244 0.013       .   A
C243       H246 0.025       .   A
C244       H245 0.024       .   A
