data_pcu_v1-6c_Zn_1_Ch_1-37_fer_tobacco
_audit_creation_date              2021-02-03
_audit_creation_method            'tobacco_3.0'
_symmetry_space_group_name_H-M    'P1'
_symmetry_Int_Tables_number       1
_symmetry_cell_setting            triclinic
loop_
_symmetry_equiv_pos_as_xyz
  x,y,z
_cell_length_a                    38.2057012172053
_cell_length_b                    38.2057012172053
_cell_length_c                    38.2057012172053
_cell_angle_alpha                 90.0
_cell_angle_beta                  90.0
_cell_angle_gamma                 90.0
loop_
_atom_site_label
_atom_site_type_symbol
_atom_site_fract_x
_atom_site_fract_y
_atom_site_fract_z
_atom_site_charge
Zn1       Zn    0.0293464055    0.0293464055    0.0293464055          1.4972
Zn2       Zn   -0.0293464055    0.0293464055   -0.0293464055          1.4936
Zn3       Zn    0.0293464055   -0.0293464055   -0.0293464055          1.4911
Zn4       Zn   -0.0293464055   -0.0293464055    0.0293464055          1.4948
O5         O    0.0000000000    0.0000000000    0.0000000000         -2.2499
O6         O    0.0215674618    0.0784333203    0.0215674618         -1.1562
O7         O   -0.0215674618    0.0215674618   -0.0784333203         -1.1544
O8         O    0.0784333203   -0.0215674618   -0.0215674618         -1.1496
O9         O   -0.0215674618    0.0784333203   -0.0215674618         -1.1564
O10        O    0.0784333203    0.0215674618    0.0215674618         -1.1524
O11        O    0.0215674618   -0.0215674618   -0.0784333203         -1.1582
O12        O   -0.0215674618   -0.0784333203    0.0215674618         -1.1521
O13        O   -0.0784333203    0.0215674618   -0.0215674618         -1.1597
O14        O    0.0215674618   -0.0784333203   -0.0215674618         -1.1536
O15        O   -0.0784333203   -0.0215674618    0.0215674618         -1.1583
O16        O   -0.0215674618   -0.0215674618    0.0784333203         -1.1573
O17        O    0.0215674618    0.0215674618    0.0784333203         -1.1552
C18        C    0.0000000000    0.0937765801    0.0000000000          0.3627
C19        C   -0.0000000000    0.0000000000   -0.0937765801          0.3676
C20        C    0.0937765801   -0.0000000000   -0.0000000000          0.3572
C21        C   -0.0000000000   -0.0937765801   -0.0000000000          0.3609
C22        C   -0.0937765801    0.0000000000    0.0000000000          0.3723
C23        C    0.0000000000   -0.0000000000    0.0937765801          0.3628
Zn24      Zn    0.9706535945    0.0293464055    0.4706535945          1.4972
Zn25      Zn    1.0293464055   -0.0293464055    0.4706535945          1.4936
Zn26      Zn    1.0293464055    0.0293464055    0.5293464055          1.4911
Zn27      Zn    0.9706535945   -0.0293464055    0.5293464055          1.4948
O28        O    1.0000000000    0.0000000000    0.5000000000         -2.2499
O29        O    0.9784325382    0.0215674618    0.4215666797         -1.1562
O30        O    1.0784333203   -0.0215674618    0.4784325382         -1.1544
O31        O    1.0215674618    0.0784333203    0.5215674618         -1.1496
O32        O    1.0215674618   -0.0215674618    0.4215666797         -1.1564
O33        O    0.9784325382    0.0784333203    0.4784325382         -1.1524
O34        O    1.0784333203    0.0215674618    0.5215674618         -1.1582
O35        O    0.9784325382   -0.0215674618    0.5784333203         -1.1521
O36        O    1.0215674618   -0.0784333203    0.4784325382         -1.1597
O37        O    1.0215674618    0.0215674618    0.5784333203         -1.1536
O38        O    0.9784325382   -0.0784333203    0.5215674618         -1.1583
O39        O    0.9215666797   -0.0215674618    0.5215674618         -1.1573
O40        O    0.9215666797    0.0215674618    0.4784325382         -1.1552
C41        C    1.0000000000    0.0000000000    0.4062234199          0.3627
C42        C    1.0937765801    0.0000000000    0.5000000000          0.3676
C43        C    1.0000000000    0.0937765801    0.5000000000          0.3572
C44        C    1.0000000000    0.0000000000    0.5937765801          0.3609
C45        C    1.0000000000   -0.0937765801    0.5000000000          0.3723
C46        C    0.9062234199    0.0000000000    0.5000000000          0.3628
Zn47      Zn    1.0293464055    0.4706535945   -0.0293464055          1.4972
Zn48      Zn    0.9706535945    0.4706535945    0.0293464055          1.4936
Zn49      Zn    1.0293464055    0.5293464055    0.0293464055          1.4911
Zn50      Zn    0.9706535945    0.5293464055   -0.0293464055          1.4948
O51        O    1.0000000000    0.5000000000    0.0000000000         -2.2499
O52        O    1.0215674618    0.4215666797   -0.0215674618         -1.1562
O53        O    0.9784325382    0.4784325382    0.0784333203         -1.1544
O54        O    1.0784333203    0.5215674618    0.0215674618         -1.1496
O55        O    0.9784325382    0.4215666797    0.0215674618         -1.1564
O56        O    1.0784333203    0.4784325382   -0.0215674618         -1.1524
O57        O    1.0215674618    0.5215674618    0.0784333203         -1.1582
O58        O    0.9784325382    0.5784333203   -0.0215674618         -1.1521
O59        O    0.9215666797    0.4784325382    0.0215674618         -1.1597
O60        O    1.0215674618    0.5784333203    0.0215674618         -1.1536
O61        O    0.9215666797    0.5215674618   -0.0215674618         -1.1583
O62        O    0.9784325382    0.5215674618   -0.0784333203         -1.1573
O63        O    1.0215674618    0.4784325382   -0.0784333203         -1.1552
C64        C    1.0000000000    0.4062234199    0.0000000000          0.3627
C65        C    1.0000000000    0.5000000000    0.0937765801          0.3676
C66        C    1.0937765801    0.5000000000    0.0000000000          0.3572
C67        C    1.0000000000    0.5937765801    0.0000000000          0.3609
C68        C    0.9062234199    0.5000000000    0.0000000000          0.3723
C69        C    1.0000000000    0.5000000000   -0.0937765801          0.3628
Zn70      Zn    0.9706535945    0.4706535945    0.5293464055          1.4972
Zn71      Zn    1.0293464055    0.4706535945    0.4706535945          1.4936
Zn72      Zn    0.9706535945    0.5293464055    0.4706535945          1.4911
Zn73      Zn    1.0293464055    0.5293464055    0.5293464055          1.4948
O74        O    1.0000000000    0.5000000000    0.5000000000         -2.2499
O75        O    0.9784325382    0.4215666797    0.5215674618         -1.1562
O76        O    1.0215674618    0.4784325382    0.4215666797         -1.1544
O77        O    0.9215666797    0.5215674618    0.4784325382         -1.1512
O78        O    1.0215674618    0.4215666797    0.4784325382         -1.1564
O79        O    0.9215666797    0.4784325382    0.5215674618         -1.1524
O80        O    0.9784325382    0.5215674618    0.4215666797         -1.1582
O81        O    1.0215674618    0.5784333203    0.5215674618         -1.1521
O82        O    1.0784333203    0.4784325382    0.4784325382         -1.1597
O83        O    0.9784325382    0.5784333203    0.4784325382         -1.1536
O84        O    1.0784333203    0.5215674618    0.5215674618         -1.1583
O85        O    1.0215674618    0.5215674618    0.5784333203         -1.1573
O86        O    0.9784325382    0.4784325382    0.5784333203         -1.1552
C87        C    1.0000000000    0.4062234199    0.5000000000          0.3627
C88        C    1.0000000000    0.5000000000    0.4062234199          0.3676
C89        C    0.9062234199    0.5000000000    0.5000000000          0.3572
C90        C    1.0000000000    0.5937765801    0.5000000000          0.3609
C91        C    1.0937765801    0.5000000000    0.5000000000          0.3723
C92        C    1.0000000000    0.5000000000    0.5937765801          0.3628
Zn93      Zn    0.4706535945    1.0293464055    0.0293464055          1.4972
Zn94      Zn    0.5293464055    0.9706535945    0.0293464055          1.4936
Zn95      Zn    0.4706535945    0.9706535945   -0.0293464055          1.4911
Zn96      Zn    0.5293464055    1.0293464055   -0.0293464055          1.4948
O97        O    0.5000000000    1.0000000000    0.0000000000         -2.2499
O98        O    0.4784325382    1.0215674618    0.0784333203         -1.1562
O99        O    0.5215674618    0.9215666797    0.0215674618         -1.1544
O100       O    0.4215666797    0.9784325382   -0.0215674618         -1.1496
O101       O    0.5215674618    0.9784325382    0.0784333203         -1.1564
O102       O    0.4215666797    1.0215674618    0.0215674618         -1.1524
O103       O    0.4784325382    0.9215666797   -0.0215674618         -1.1582
O104       O    0.5215674618    1.0215674618   -0.0784333203         -1.1521
O105       O    0.5784333203    0.9784325382    0.0215674618         -1.1597
O106       O    0.4784325382    0.9784325382   -0.0784333203         -1.1536
O107       O    0.5784333203    1.0215674618   -0.0215674618         -1.1583
O108       O    0.5215674618    1.0784333203   -0.0215674618         -1.1573
O109       O    0.4784325382    1.0784333203    0.0215674618         -1.1552
C110       C    0.5000000000    1.0000000000    0.0937765801          0.3627
C111       C    0.5000000000    0.9062234199    0.0000000000          0.3676
C112       C    0.4062234199    1.0000000000    0.0000000000          0.3572
C113       C    0.5000000000    1.0000000000   -0.0937765801          0.3609
C114       C    0.5937765801    1.0000000000    0.0000000000          0.3723
C115       C    0.5000000000    1.0937765801    0.0000000000          0.3628
Zn116     Zn    0.4706535945    1.0293464055    0.5293464055          1.4972
Zn117     Zn    0.4706535945    0.9706535945    0.4706535945          1.4936
Zn118     Zn    0.5293464055    1.0293464055    0.4706535945          1.4911
Zn119     Zn    0.5293464055    0.9706535945    0.5293464055          1.4948
O120       O    0.5000000000    1.0000000000    0.5000000000         -2.2499
O121       O    0.4215666797    1.0215674618    0.5215674618         -1.1562
O122       O    0.4784325382    0.9784325382    0.4215666797         -1.1544
O123       O    0.5215674618    1.0784333203    0.4784325382         -1.1496
O124       O    0.4215666797    0.9784325382    0.4784325382         -1.1564
O125       O    0.4784325382    1.0784333203    0.5215674618         -1.1524
O126       O    0.5215674618    1.0215674618    0.4215666797         -1.1582
O127       O    0.5784333203    0.9784325382    0.5215674618         -1.1521
O128       O    0.4784325382    0.9215666797    0.4784325382         -1.1597
O129       O    0.5784333203    1.0215674618    0.4784325382         -1.1536
O130       O    0.5215674618    0.9215666797    0.5215674618         -1.1583
O131       O    0.5215674618    0.9784325382    0.5784333203         -1.1573
O132       O    0.4784325382    1.0215674618    0.5784333203         -1.1552
C133       C    0.4062234199    1.0000000000    0.5000000000          0.3627
C134       C    0.5000000000    1.0000000000    0.4062234199          0.3676
C135       C    0.5000000000    1.0937765801    0.5000000000          0.3572
C136       C    0.5937765801    1.0000000000    0.5000000000          0.3609
C137       C    0.5000000000    0.9062234199    0.5000000000          0.3723
C138       C    0.5000000000    1.0000000000    0.5937765801          0.3628
Zn139     Zn    0.4706535945    0.5293464055   -0.0293464055          1.4972
Zn140     Zn    0.4706535945    0.4706535945    0.0293464055          1.4936
Zn141     Zn    0.5293464055    0.4706535945   -0.0293464055          1.4911
Zn142     Zn    0.5293464055    0.5293464055    0.0293464055          1.4948
O143       O    0.5000000000    0.5000000000    0.0000000000         -2.2499
O144       O    0.4215666797    0.5215674618   -0.0215674618         -1.1562
O145       O    0.4784325382    0.4215666797    0.0215674618         -1.1544
O146       O    0.5215674618    0.4784325382   -0.0784333203         -1.1496
O147       O    0.4215666797    0.4784325382    0.0215674618         -1.1564
O148       O    0.4784325382    0.5215674618   -0.0784333203         -1.1524
O149       O    0.5215674618    0.4215666797   -0.0215674618         -1.1582
O150       O    0.5784333203    0.5215674618    0.0215674618         -1.1521
O151       O    0.4784325382    0.4784325382    0.0784333203         -1.1597
O152       O    0.5784333203    0.4784325382   -0.0215674618         -1.1536
O153       O    0.5215674618    0.5215674618    0.0784333203         -1.1583
O154       O    0.5215674618    0.5784333203    0.0215674618         -1.1573
O155       O    0.4784325382    0.5784333203   -0.0215674618         -1.1552
C156       C    0.4062234199    0.5000000000    0.0000000000          0.3627
C157       C    0.5000000000    0.4062234199    0.0000000000          0.3676
C158       C    0.5000000000    0.5000000000   -0.0937765801          0.3572
C159       C    0.5937765801    0.5000000000    0.0000000000          0.3609
C160       C    0.5000000000    0.5000000000    0.0937765801          0.3723
C161       C    0.5000000000    0.5937765801    0.0000000000          0.3628
Zn162     Zn    0.4706535945    0.5293464055    0.4706535945          1.4972
Zn163     Zn    0.4706535945    0.4706535945    0.5293464055          1.4936
Zn164     Zn    0.5293464055    0.4706535945    0.4706535945          1.4911
Zn165     Zn    0.5293464055    0.5293464055    0.5293464055          1.4948
O166       O    0.5000000000    0.5000000000    0.5000000000         -2.2499
O167       O    0.4215666797    0.5215674618    0.4784325382         -1.1562
O168       O    0.4784325382    0.4215666797    0.5215674618         -1.1544
O169       O    0.5215674618    0.4784325382    0.4215666797         -1.1496
O170       O    0.4215666797    0.4784325382    0.5215674618         -1.1564
O171       O    0.4784325382    0.5215674618    0.4215666797         -1.1524
O172       O    0.5215674618    0.4215666797    0.4784325382         -1.1582
O173       O    0.5784333203    0.5215674618    0.5215674618         -1.1521
O174       O    0.4784325382    0.4784325382    0.5784333203         -1.1597
O175       O    0.5784333203    0.4784325382    0.4784325382         -1.1536
O176       O    0.5215674618    0.5215674618    0.5784333203         -1.1583
O177       O    0.5215674618    0.5784333203    0.5215674618         -1.1573
O178       O    0.4784325382    0.5784333203    0.4784325382         -1.1552
C179       C    0.4062234199    0.5000000000    0.5000000000          0.3627
C180       C    0.5000000000    0.4062234199    0.5000000000          0.3676
C181       C    0.5000000000    0.5000000000    0.4062234199          0.3572
C182       C    0.5937765801    0.5000000000    0.5000000000          0.3609
C183       C    0.5000000000    0.5000000000    0.5937765801          0.3723
C184       C    0.5000000000    0.5937765801    0.5000000000          0.3628
C875       C    0.5000000000    0.5000000000   -0.3659152996          0.5861
C876       C    0.5008940201    0.5304971762   -0.3470904008          0.5854
C877       C    0.4998800618    0.5285487319   -0.3115149550          0.5865
C878       C    0.4966880597    0.4977031735   -0.2947408954         -0.4105
C879       C    0.4952173443    0.4685014043   -0.3136529135         -0.4093
C880       C    0.4971272335    0.4696921836   -0.3484103207         -0.4112
C881       C    0.4935847144    0.4972162541   -0.2544698771         -0.4075
N882       N    0.5022254986    0.5571118941   -0.2910900541          0.5846
C883       C    0.5020491184    0.5663691157   -0.3665184405          0.5843
H884       H    0.4961581083    0.4449253751   -0.3623717496         -0.4104
H885       H    0.4925181287    0.4432054368   -0.3009193371         -0.4068
C886       C    0.4992991683    0.4630744416   -0.2332748023          0.5876
N887       N    0.4999188837    0.4718969196   -0.1950662056          0.5872
N888       N    0.5153099277    0.4945255910   -0.2045035019          0.5735
N889       N    0.4929209309    0.5083389862   -0.2278700170         -0.4068
C890       C    0.5005744277    0.4754854143   -0.1596781048          0.5869
H891       H    0.5233050565    0.4493945861   -0.2417378143          0.5662
H892       H    0.4773946432    0.4452001342   -0.2381281533          -0.393
H893       H    0.4689211638    0.5095640316   -0.2466763109         -0.3855
C894       C    0.5000000000    0.5000000000   -0.1340847004          0.5875
H895       H    0.4989147822    0.5276139236   -0.1411389189         -0.4116
H896       H    0.5012882433    0.4473552681   -0.1535894287          0.5863
C897       C    0.4962087836    0.6020714208   -0.3482736438         -0.4105
H898       H    0.4718896728    0.6022932366   -0.3332109773         -0.3887
H899       H    0.5182267185    0.6088774761   -0.3313462581            0.57
H900       H    0.4942556694    0.6226719922   -0.3679775933         -0.4089
H901       H    0.5270034283    0.5684768269   -0.3803212925           0.562
H902       H    0.4812896271    0.5659910882   -0.3861765578         -0.3974
H903       H    0.4801753560    0.5673878325   -0.2801937954         -0.3958
H904       H    0.5174987914    0.5775491560   -0.2987044097          0.5709
C845       C    0.5000000000    0.5000000000    0.3659152996          0.5861
C846       C    0.4695028238    0.4991059799    0.3470904008          0.5854
C847       C    0.4714512681    0.5001199382    0.3115149550          0.5865
C848       C    0.5022968265    0.5033119403    0.2947408954         -0.4105
C849       C    0.5314985957    0.5047826557    0.3136529135         -0.4093
C850       C    0.5303078164    0.5028727665    0.3484103207         -0.4112
C851       C    0.5027837459    0.5064152856    0.2544698771         -0.4075
N852       N    0.4428881059    0.4977745014    0.2910900541          0.5846
C853       C    0.4336308843    0.4979508816    0.3665184405          0.5843
H854       H    0.5550746249    0.5038418917    0.3623717496         -0.4104
H855       H    0.5567945632    0.5074818713    0.3009193371         -0.4068
C856       C    0.5369255584    0.5007008317    0.2332748023          0.5876
N857       N    0.5281030804    0.5000811163    0.1950662056          0.5872
N858       N    0.5054744090    0.4846900723    0.2045035019          0.5735
N859       N    0.4916610138    0.5070790691    0.2278700170         -0.4068
C860       C    0.5245145857    0.4994255723    0.1596781048          0.5869
H861       H    0.5506054139    0.4766949435    0.2417378143          0.5662
H862       H    0.5547998658    0.5226053568    0.2381281533          -0.393
H863       H    0.4904359684    0.5310788362    0.2466763109         -0.3855
C864       C    0.5000000000    0.5000000000    0.1340847004          0.5875
H865       H    0.4723860764    0.5010852178    0.1411389189         -0.4116
H866       H    0.5526447319    0.4987117567    0.1535894287          0.5863
C867       C    0.3979285792    0.5037912164    0.3482736438         -0.4105
H868       H    0.3977067634    0.5281103272    0.3332109773         -0.3887
H869       H    0.3911225239    0.4817732815    0.3313462581            0.57
H870       H    0.3773280078    0.5057443306    0.3679775933         -0.4089
H871       H    0.4315231731    0.4729965717    0.3803212925           0.562
H872       H    0.4340089118    0.5187103729    0.3861765578         -0.3974
H873       H    0.4326121675    0.5198246440    0.2801937954         -0.3958
H874       H    0.4224508440    0.4825012086    0.2987044097          0.5709
C815       C    0.5000000000    0.8659152996    0.5000000000          0.5861
C816       C    0.5006482927    0.8470904008    0.5305033890          0.5854
C817       C    0.4996500648    0.8115149550    0.5285468391          0.5865
C818       C    0.4967066714    0.7947408954    0.4976765656         -0.4105
C819       C    0.4954712657    0.8136529135    0.4684638954         -0.4093
C820       C    0.4973714995    0.8484103207    0.4696700229         -0.4112
C821       C    0.4936073496    0.7544698771    0.4971646601         -0.4075
N822       N    0.5017653085    0.7910900541    0.5571279702          0.5846
C823       C    0.5015143538    0.8665184405    0.5663834704          0.5843
H824       H    0.4966019377    0.8623717496    0.4448962106         -0.4104
H825       H    0.4929759329    0.8009193371    0.4431470028         -0.4068
C826       C    0.4995966792    0.7332748023    0.4630699938          0.5876
N827       N    0.5001452968    0.6950662056    0.4718971782          0.5872
N828       N    0.5153535350    0.7045035019    0.4946491120          0.5735
N829       N    0.4928539782    0.7278700170    0.5082816835         -0.4068
C830       C    0.5007719091    0.6596781048    0.4754908377          0.5869
H831       H    0.5237119991    0.7417378143    0.4495839840          0.5662
H832       H    0.4778368681    0.7381281533    0.4450197942          -0.393
H833       H    0.4688451204    0.7466763109    0.5093133367         -0.3855
C834       C    0.5000000000    0.6340847004    0.5000000000          0.5875
H835       H    0.4986923478    0.6411389189    0.5276042844         -0.4116
H836       H    0.5017123301    0.6535894287    0.4473673553          0.5863
C837       C    0.4953865754    0.8482736438    0.6020375645         -0.4105
H838       H    0.4710664669    0.8332109773    0.6020634480         -0.3887
H839       H    0.5173489633    0.8313462581    0.6090207849            0.57
H840       H    0.4932675576    0.8679775933    0.6226217323         -0.4089
H841       H    0.5264508732    0.8803212925    0.5686921558           0.562
H842       H    0.4807585818    0.8861765578    0.5658382078         -0.3974
H843       H    0.4796330941    0.7801937954    0.5672259297         -0.3958
H844       H    0.5168734542    0.7987044097    0.5776876171          0.5709
C785       C    0.5000000000    1.1340847004    0.5000000000          0.5861
C786       C    0.4695028238    1.1529095992    0.4991059799          0.5854
C787       C    0.4714512681    1.1884850450    0.5001199382          0.5865
C788       C    0.5022968265    1.2052591046    0.5033119403         -0.4105
C789       C    0.5314985957    1.1863470865    0.5047826557         -0.4093
C790       C    0.5303078164    1.1515896793    0.5028727665         -0.4112
C791       C    0.5027837459    1.2455301229    0.5064152856         -0.4075
N792       N    0.4428881059    1.2089099459    0.4977745014          0.5846
C793       C    0.4336308843    1.1334815595    0.4979508816          0.5843
H794       H    0.5550746249    1.1376282504    0.5038418917         -0.4104
H795       H    0.5567945632    1.1990806629    0.5074818713         -0.4068
C796       C    0.5369255584    1.2667251977    0.5007008317          0.5876
N797       N    0.5281030804    1.3049337944    0.5000811163          0.5872
N798       N    0.5054744090    1.2954964981    0.4846900723          0.5735
N799       N    0.4916610138    1.2721299830    0.5070790691         -0.4068
C800       C    0.5245145857    1.3403218952    0.4994255723          0.5869
H801       H    0.5506054139    1.2582621857    0.4766949435          0.5662
H802       H    0.5547998658    1.2618718467    0.5226053568          -0.393
H803       H    0.4904359684    1.2533236891    0.5310788362         -0.3855
C804       C    0.5000000000    1.3659152996    0.5000000000          0.5875
H805       H    0.4723860764    1.3588610811    0.5010852178         -0.4116
H806       H    0.5526447319    1.3464105713    0.4987117567          0.5863
C807       C    0.3979285792    1.1517263562    0.5037912164         -0.4105
H808       H    0.3977067634    1.1667890227    0.5281103272         -0.3887
H809       H    0.3911225239    1.1686537419    0.4817732815            0.57
H810       H    0.3773280078    1.1320224067    0.5057443306         -0.4089
H811       H    0.4315231731    1.1196787075    0.4729965717           0.562
H812       H    0.4340089118    1.1138234422    0.5187103729         -0.3974
H813       H    0.4326121675    1.2198062046    0.5198246440         -0.3958
H814       H    0.4224508440    1.2012955903    0.4825012086          0.5709
C755       C    0.5000000000    0.8659152996    0.0000000000          0.5861
C756       C    0.5302433868    0.8470904008    0.0040267334          0.5854
C757       C    0.5281571355    0.8115149550    0.0047138303          0.5865
C758       C    0.4972000061    0.7947408954    0.0028990334         -0.4105
C759       C    0.4681423035    0.8136529135   -0.0003500049         -0.4093
C760       C    0.4696249871    0.8484103207   -0.0020433098         -0.4112
C761       C    0.4962198945    0.7544698771    0.0058835307         -0.4075
N762       N    0.5567253618    0.7910900541    0.0069967581          0.5846
C763       C    0.5658334727    0.8665184405    0.0086609625          0.5843
H764       H    0.4450251515    0.8623717496   -0.0050735067         -0.4104
H765       H    0.4427417188    0.8009193371   -0.0017578508         -0.4068
C766       C    0.4634431577    0.7332748023   -0.0052521717          0.5876
N767       N    0.4722503410    0.6950662056   -0.0044436616          0.5872
N768       N    0.4970614014    0.7045035019   -0.0159914876          0.5735
N769       N    0.5070907320    0.7278700170    0.0083290713         -0.4068
C770       C    0.4758975620    0.6596781048   -0.0045130212          0.5869
H771       H    0.4538058944    0.7417378143   -0.0311470412          0.5662
H772       H    0.4422759945    0.7381281533    0.0134895008          -0.393
H773       H    0.5044365876    0.7466763109    0.0322130634         -0.3855
C774       C    0.5000000000    0.6340847004    0.0000000000          0.5875
H775       H    0.5270791377    0.6411389189    0.0055160471         -0.4116
H776       H    0.4482491493    0.6535894287   -0.0097456052          0.5863
C777       C    0.6001300897    0.8482736438    0.0201720948         -0.4105
H778       H    0.5964343939    0.8332109773    0.0442097773         -0.3887
H779       H    0.6103915919    0.8313462581   -0.0004631522            0.57
H780       H    0.6201476286    0.8679775933    0.0254157894         -0.4089
H781       H    0.5719305646    0.8803212925   -0.0156286547           0.562
H782       H    0.5621187438    0.8861765578    0.0290888888         -0.3974
H783       H    0.5633179109    0.7801937954    0.0304134615         -0.3958
H784       H    0.5793546355    0.7987044097   -0.0047876008          0.5709
C725       C    0.5000000000    1.1340847004    0.0000000000          0.5861
C726       C    0.4979005608    1.1529095992    0.0304379596          0.5854
C727       C    0.4989907840    1.1884850450    0.0285311402          0.5865
C728       C    0.5034001853    1.2052591046   -0.0021640472         -0.4105
C729       C    0.5060246372    1.1863470865   -0.0312848058         -0.4093
C730       C    0.5040691487    1.1515896793   -0.0301704914         -0.4112
C731       C    0.5065203597    1.2455301229   -0.0025278529         -0.4075
N732       N    0.4955175509    1.2089099459    0.0569791975          0.5846
C733       C    0.4953276837    1.1334815595    0.0662361522          0.5843
H734       H    0.5060170066    1.1376282504   -0.0548795961         -0.4104
H735       H    0.5097221595    1.1990806629   -0.0564542330         -0.4068
C736       C    0.5021606350    1.2667251977   -0.0368689528          0.5876
N737       N    0.5011924884    1.3049337944   -0.0280778859          0.5872
N738       N    0.4849185549    1.2954964981   -0.0060756112          0.5735
N739       N    0.5067437361    1.2721299830    0.0086124290         -0.4068
C740       C    0.5003955375    1.3403218952   -0.0245181245          0.5869
H741       H    0.4787145460    1.2582621857   -0.0514875035          0.5662
H742       H    0.5247549258    1.2618718467   -0.0538629844          -0.393
H743       H    0.5306762783    1.2533236891    0.0107856715         -0.3855
C744       C    0.5000000000    1.3659152996    0.0000000000          0.5875
H745       H    0.4999922786    1.3588610811    0.0276352386         -0.4116
H746       H    0.5007947864    1.3464105713   -0.0526544934          0.5863
C747       C    0.4997514755    1.1517263562    0.1021415023         -0.4105
H748       H    0.5240427877    1.1667890227    0.1033249297         -0.3887
H749       H    0.4774815968    1.1686537419    0.1080714559            0.57
H750       H    0.5008883393    1.1320224067    0.1228031997         -0.4089
H751       H    0.4703095398    1.1196787075    0.0673553082           0.562
H752       H    0.5160858842    1.1138234422    0.0666794279         -0.3974
H753       H    0.5171440443    1.2198062046    0.0681191473         -0.3958
H754       H    0.4794479435    1.2012955903    0.0767964340          0.5709
C695       C    0.5000000000    1.0000000000   -0.1340847004          0.5861
C696       C    0.4978894980    1.0304371945   -0.1529095992          0.5854
C697       C    0.4989804142    1.0285307715   -0.1884850450          0.5865
C698       C    0.5034009716    0.9978371888   -0.2052591046         -0.4105
C699       C    0.5060360075    0.9687173859   -0.1863470865         -0.4093
C700       C    0.5040801141    0.9698309895   -0.1515896793         -0.4112
C701       C    0.5065212780    0.9974745171   -0.2455301229         -0.4075
N702       N    0.4954968417    1.0569775645   -0.2089099459          0.5846
C703       C    0.4953036099    1.0662344497   -0.1334815595          0.5843
H704       H    0.5060369526    0.9451225944   -0.1376282504         -0.4104
H705       H    0.5097426776    0.9435493044   -0.1990806629         -0.4068
C706       C    0.5021740352    0.9631318349   -0.2667251977          0.5876
N707       N    0.5012026935    0.9719225494   -0.3049337944          0.5872
N708       N    0.4849207641    0.9939189077   -0.2954964981          0.5735
N709       N    0.5067406054    1.0086148795   -0.2721299830         -0.4068
C710       C    0.5004044488    0.9754820209   -0.3403218952          0.5869
H711       H    0.4787332610    0.9485047635   -0.2582621857          0.5662
H712       H    0.5247745011    0.9461460165   -0.2618718467          -0.393
H713       H    0.5306723562    1.0107968203   -0.2533236891         -0.3855
C714       C    0.5000000000    1.0000000000   -0.3659152996          0.5875
H715       H    0.4999822343    1.0276352340   -0.3588610811         -0.4116
H716       H    0.5008139240    0.9473457989   -0.3464105713          0.5863
C717       C    0.4997143514    1.1021414053   -0.1517263562         -0.4105
H718       H    0.5240052318    1.1033336615   -0.1667890227         -0.3887
H719       H    0.4774423189    1.1080632643   -0.1686537419            0.57
H720       H    0.5008437055    1.1228035145   -0.1320224067         -0.4089
H721       H    0.4702850610    1.0673445125   -0.1196787075           0.562
H722       H    0.5160616480    1.0666852700   -0.1138234422         -0.3974
H723       H    0.5171192848    1.0681253739   -0.2198062046         -0.3958
H724       H    0.4794200326    1.0767889591   -0.2012955903          0.5709
C665       C    0.5000000000    1.0000000000    0.1340847004          0.5861
C666       C    0.5304971762    0.9991059799    0.1529095992          0.5854
C667       C    0.5285487319    1.0001199382    0.1884850450          0.5865
C668       C    0.4977031735    1.0033119403    0.2052591046         -0.4105
C669       C    0.4685014043    1.0047826557    0.1863470865         -0.4093
C670       C    0.4696921836    1.0028727665    0.1515896793         -0.4112
C671       C    0.4972162541    1.0064152856    0.2455301229         -0.4075
N672       N    0.5571118941    0.9977745014    0.2089099459          0.5846
C673       C    0.5663691157    0.9979508816    0.1334815595          0.5843
H674       H    0.4449253751    1.0038418917    0.1376282504         -0.4104
H675       H    0.4432054368    1.0074818713    0.1990806629         -0.4068
C676       C    0.4630744416    1.0007008317    0.2667251977          0.5876
N677       N    0.4718969196    1.0000811163    0.3049337944          0.5872
N678       N    0.4945255910    0.9846900723    0.2954964981          0.5735
N679       N    0.5083389862    1.0070790691    0.2721299830         -0.4068
C680       C    0.4754854143    0.9994255723    0.3403218952          0.5869
H681       H    0.4493945861    0.9766949435    0.2582621857          0.5662
H682       H    0.4452001342    1.0226053568    0.2618718467          -0.393
H683       H    0.5095640316    1.0310788362    0.2533236891         -0.3855
C684       C    0.5000000000    1.0000000000    0.3659152996          0.5875
H685       H    0.5276139236    1.0010852178    0.3588610811         -0.4116
H686       H    0.4473552681    0.9987117567    0.3464105713          0.5863
C687       C    0.6020714208    1.0037912164    0.1517263562         -0.4105
H688       H    0.6022932366    1.0281103272    0.1667890227         -0.3887
H689       H    0.6088774761    0.9817732815    0.1686537419            0.57
H690       H    0.6226719922    1.0057443306    0.1320224067         -0.4089
H691       H    0.5684768269    0.9729965717    0.1196787075           0.562
H692       H    0.5659910882    1.0187103729    0.1138234422         -0.3974
H693       H    0.5673878325    1.0198246440    0.2198062046         -0.3958
H694       H    0.5775491560    0.9825012086    0.2012955903          0.5709
C635       C    0.8659152996    0.5000000000    0.5000000000          0.5861
C636       C    0.8470904008    0.4776611589    0.5207810781          0.5854
C637       C    0.8115149550    0.4797603414    0.5201345647          0.5865
C638       C    0.7947408954    0.5039610213    0.5007447622         -0.4105
C639       C    0.8136529135    0.5257826612    0.4812839718         -0.4093
C640       C    0.8484103207    0.5235936680    0.4807605782         -0.4112
C641       C    0.7544698771    0.5064870749    0.5026120854         -0.4075
N642       N    0.7910900541    0.4577790282    0.5385241591          0.5846
C643       C    0.8665184405    0.4513126652    0.5451508786          0.5843
H644       H    0.8623717496    0.5419057958    0.4640572856         -0.4104
H645       H    0.8009193371    0.5456865046    0.4654407161         -0.4068
C646       C    0.7332748023    0.5267795446    0.4745668717          0.5876
N647       N    0.6950662056    0.5200635950    0.4803215381          0.5872
N648       N    0.7045035019    0.4931453969    0.4852562740          0.5735
N649       N    0.7278700170    0.4990349451    0.5108958973         -0.4068
C650       C    0.6596781048    0.5170485648    0.4823749804          0.5869
H651       H    0.7417378143    0.5196594202    0.4478699629          0.5662
H652       H    0.7381281533    0.5548873855    0.4776079846          -0.393
H653       H    0.7466763109    0.5150173705    0.5288416946         -0.3855
C654       C    0.6340847004    0.5000000000    0.5000000000          0.5875
H655       H    0.6411389189    0.4811037287    0.5201652524         -0.4116
H656       H    0.6535894287    0.5365731639    0.4621115974          0.5863
C657       C    0.8482736438    0.4299976817    0.5743816086         -0.4105
H658       H    0.8332109773    0.4469185762    0.5918501998         -0.3887
H659       H    0.8313462581    0.4096897022    0.5634867559            0.57
H660       H    0.8679775933    0.4167037328    0.5902393866         -0.4089
H661       H    0.8803212925    0.4322872894    0.5288660664           0.562
H662       H    0.8861765578    0.4661607425    0.5596641134         -0.3974
H663       H    0.7801937954    0.4659489273    0.5614382693         -0.3958
H664       H    0.7987044097    0.4325035923    0.5420037410          0.5709
C605       C    1.1340847004    0.5000000000    0.5000000000          0.5861
C606       C    1.1529095992    0.5207810781    0.4776611589          0.5854
C607       C    1.1884850450    0.5201345647    0.4797603414          0.5865
C608       C    1.2052591046    0.5007447622    0.5039610213         -0.4105
C609       C    1.1863470865    0.4812839718    0.5257826612         -0.4093
C610       C    1.1515896793    0.4807605782    0.5235936680         -0.4112
C611       C    1.2455301229    0.5026120854    0.5064870749         -0.4075
N612       N    1.2089099459    0.5385241591    0.4577790282          0.5846
C613       C    1.1334815595    0.5451508786    0.4513126652          0.5843
H614       H    1.1376282504    0.4640572856    0.5419057958         -0.4104
H615       H    1.1990806629    0.4654407161    0.5456865046         -0.4068
C616       C    1.2667251977    0.4745668717    0.5267795446          0.5876
N617       N    1.3049337944    0.4803215381    0.5200635950          0.5872
N618       N    1.2954964981    0.4852562740    0.4931453969          0.5735
N619       N    1.2721299830    0.5108958973    0.4990349451         -0.4068
C620       C    1.3403218952    0.4823749804    0.5170485648          0.5869
H621       H    1.2582621857    0.4478699629    0.5196594202          0.5662
H622       H    1.2618718467    0.4776079846    0.5548873855          -0.393
H623       H    1.2533236891    0.5288416946    0.5150173705         -0.3855
C624       C    1.3659152996    0.5000000000    0.5000000000          0.5875
H625       H    1.3588610811    0.5201652524    0.4811037287         -0.4116
H626       H    1.3464105713    0.4621115974    0.5365731639          0.5863
C627       C    1.1517263562    0.5743816086    0.4299976817         -0.4105
H628       H    1.1667890227    0.5918501998    0.4469185762         -0.3887
H629       H    1.1686537419    0.5634867559    0.4096897022            0.57
H630       H    1.1320224067    0.5902393866    0.4167037328         -0.4089
H631       H    1.1196787075    0.5288660664    0.4322872894           0.562
H632       H    1.1138234422    0.5596641134    0.4661607425         -0.3974
H633       H    1.2198062046    0.5614382693    0.4659489273         -0.3958
H634       H    1.2012955903    0.5420037410    0.4325035923          0.5709
C575       C    0.8659152996    0.5000000000    0.0000000000          0.5861
C576       C    0.8470904008    0.5304949223   -0.0009678534          0.5854
C577       C    0.8115149550    0.5284882585   -0.0018610762          0.5865
C578       C    0.7947408954    0.4975054347   -0.0031656760         -0.4105
C579       C    0.8136529135    0.4682683312   -0.0028524589         -0.4093
C580       C    0.8484103207    0.4695733890   -0.0010187588         -0.4112
C581       C    0.7544698771    0.4968301300   -0.0062335428         -0.4075
N582       N    0.7910900541    0.5571412988   -0.0012622480          0.5846
C583       C    0.8665184405    0.5663705249   -0.0020029543          0.5843
H584       H    0.8623717496    0.4447935834   -0.0004754008         -0.4104
H585       H    0.8009193371    0.4428548231   -0.0040036932         -0.4068
C586       C    0.7332748023    0.4631004489    0.0015527883          0.5876
N587       N    0.6950662056    0.4719442997    0.0016332130          0.5872
N588       N    0.7045035019    0.4954696302    0.0156153382          0.5735
N589       N    0.7278700170    0.5078916634   -0.0075745335         -0.4068
C590       C    0.6596781048    0.4755660982    0.0020686523          0.5869
H591       H    0.7417378143    0.4509103307    0.0263483955          0.5662
H592       H    0.7381281533    0.4439233328   -0.0192206876          -0.393
H593       H    0.7466763109    0.5076505356   -0.0316043362         -0.3855
C594       C    0.6340847004    0.5000000000    0.0000000000          0.5875
H595       H    0.6411389189    0.5274963125   -0.0027675387         -0.4116
H596       H    0.6535894287    0.4475318702    0.0044969679          0.5863
C597       C    0.8482736438    0.6016501148   -0.0100101158         -0.4105
H598       H    0.8332109773    0.6003881467   -0.0342974743         -0.3887
H599       H    0.8313462581    0.6097865055    0.0115516790            0.57
H600       H    0.8679775933    0.6220931958   -0.0132161478         -0.4089
H601       H    0.8803212925    0.5699964272    0.0227763287           0.562
H602       H    0.8861765578    0.5647269533   -0.0227007333         -0.3974
H603       H    0.7801937954    0.5660531307   -0.0238981256         -0.3958
H604       H    0.7987044097    0.5784721179    0.0127360126          0.5709
C545       C    1.1340847004    0.5000000000    0.0000000000          0.5861
C546       C    1.1529095992    0.4773008423    0.0203868895          0.5854
C547       C    1.1884850450    0.4781328524    0.0183540822          0.5865
C548       C    1.2052591046    0.4996131614   -0.0040118221         -0.4105
C549       C    1.1863470865    0.5209509986   -0.0240018955         -0.4093
C550       C    1.1515896793    0.5212761419   -0.0217748090         -0.4112
C551       C    1.2455301229    0.4979796970   -0.0066950360         -0.4075
N552       N    1.2089099459    0.4578475946    0.0385991712          0.5846
C553       C    1.1334815595    0.4506681128    0.0444457344          0.5843
H554       H    1.1376282504    0.5395531035   -0.0385165736         -0.4104
H555       H    1.1990806629    0.5385140088   -0.0424060365         -0.4068
C556       C    1.2667251977    0.5277304042   -0.0243928823          0.5876
N557       N    1.3049337944    0.5213971033   -0.0182195959          0.5872
N558       N    1.2954964981    0.5140702100    0.0081481427          0.5735
N559       N    1.2721299830    0.4890614590   -0.0000151552         -0.4068
C560       C    1.3403218952    0.5190817592   -0.0154006930          0.5869
H561       H    1.2582621857    0.5536819218   -0.0149092201          0.5662
H562       H    1.2618718467    0.5272201307   -0.0526601550          -0.393
H563       H    1.2533236891    0.4726199579   -0.0175413243         -0.3855
C564       C    1.3659152996    0.5000000000    0.0000000000          0.5875
H565       H    1.3588610811    0.4782226626    0.0170133491         -0.4116
H566       H    1.3464105713    0.5410131338   -0.0330310493          0.5863
C567       C    1.1517263562    0.4196450358    0.0630557530         -0.4105
H568       H    1.1667890227    0.4037629128    0.0446376500         -0.3887
H569       H    1.1686537419    0.4286763638    0.0842582755            0.57
H570       H    1.1320224067    0.4026598421    0.0748752874         -0.4089
H571       H    1.1196787075    0.4651826464    0.0648537806           0.562
H572       H    1.1138234422    0.4375437229    0.0283569255         -0.3974
H573       H    1.2198062046    0.4357577240    0.0284089152         -0.3958
H574       H    1.2012955903    0.4521172017    0.0634611450          0.5709
C515       C    1.0000000000    0.5000000000   -0.1340847004          0.5861
C516       C    1.0304971762    0.5008940201   -0.1529095992          0.5854
C517       C    1.0285487319    0.4998800618   -0.1884850450          0.5865
C518       C    0.9977031735    0.4966880597   -0.2052591046         -0.4105
C519       C    0.9685014043    0.4952173443   -0.1863470865         -0.4093
C520       C    0.9696921836    0.4971272335   -0.1515896793         -0.4112
C521       C    0.9972162541    0.4935847144   -0.2455301229         -0.4075
N522       N    1.0571118941    0.5022254986   -0.2089099459          0.5846
C523       C    1.0663691157    0.5020491184   -0.1334815595          0.5843
H524       H    0.9449253751    0.4961581083   -0.1376282504         -0.4104
H525       H    0.9432054368    0.4925181287   -0.1990806629         -0.4068
C526       C    0.9630744416    0.4992991683   -0.2667251977          0.5876
N527       N    0.9718969196    0.4999188837   -0.3049337944          0.5872
N528       N    0.9945255910    0.5153099277   -0.2954964981          0.5735
N529       N    1.0083389862    0.4929209309   -0.2721299830         -0.4068
C530       C    0.9754854143    0.5005744277   -0.3403218952          0.5869
H531       H    0.9493945861    0.5233050565   -0.2582621857          0.5662
H532       H    0.9452001342    0.4773946432   -0.2618718467          -0.393
H533       H    1.0095640316    0.4689211638   -0.2533236891         -0.3855
C534       C    1.0000000000    0.5000000000   -0.3659152996          0.5875
H535       H    1.0276139236    0.4989147822   -0.3588610811         -0.4116
H536       H    0.9473552681    0.5012882433   -0.3464105713          0.5863
C537       C    1.1020714208    0.4962087836   -0.1517263562         -0.4105
H538       H    1.1022932366    0.4718896728   -0.1667890227         -0.3887
H539       H    1.1088774761    0.5182267185   -0.1686537419            0.57
H540       H    1.1226719922    0.4942556694   -0.1320224067         -0.4089
H541       H    1.0684768269    0.5270034283   -0.1196787075           0.562
H542       H    1.0659910882    0.4812896271   -0.1138234422         -0.3974
H543       H    1.0673878325    0.4801753560   -0.2198062046         -0.3958
H544       H    1.0775491560    0.5174987914   -0.2012955903          0.5709
C485       C    1.0000000000    0.5000000000    0.1340847004          0.5861
C486       C    0.9695028238    0.5008940201    0.1529095992          0.5854
C487       C    0.9714512681    0.4998800618    0.1884850450          0.5865
C488       C    1.0022968265    0.4966880597    0.2052591046         -0.4105
C489       C    1.0314985957    0.4952173443    0.1863470865         -0.4093
C490       C    1.0303078164    0.4971272335    0.1515896793         -0.4112
C491       C    1.0027837459    0.4935847144    0.2455301229         -0.4075
N492       N    0.9428881059    0.5022254986    0.2089099459          0.5846
C493       C    0.9336308843    0.5020491184    0.1334815595          0.5843
H494       H    1.0550746249    0.4961581083    0.1376282504         -0.4104
H495       H    1.0567945632    0.4925181287    0.1990806629         -0.4068
C496       C    1.0369255584    0.4992991683    0.2667251977          0.5876
N497       N    1.0281030804    0.4999188837    0.3049337944          0.5872
N498       N    1.0054744090    0.5153099277    0.2954964981          0.5735
N499       N    0.9916610138    0.4929209309    0.2721299830         -0.4068
C500       C    1.0245145857    0.5005744277    0.3403218952          0.5869
H501       H    1.0506054139    0.5233050565    0.2582621857          0.5662
H502       H    1.0547998658    0.4773946432    0.2618718467          -0.393
H503       H    0.9904359684    0.4689211638    0.2533236891         -0.3855
C504       C    1.0000000000    0.5000000000    0.3659152996          0.5875
H505       H    0.9723860764    0.4989147822    0.3588610811         -0.4116
H506       H    1.0526447319    0.5012882433    0.3464105713          0.5863
C507       C    0.8979285792    0.4962087836    0.1517263562         -0.4105
H508       H    0.8977067634    0.4718896728    0.1667890227         -0.3887
H509       H    0.8911225239    0.5182267185    0.1686537419            0.57
H510       H    0.8773280078    0.4942556694    0.1320224067         -0.4089
H511       H    0.9315231731    0.5270034283    0.1196787075           0.562
H512       H    0.9340089118    0.4812896271    0.1138234422         -0.3974
H513       H    0.9326121675    0.4801753560    0.2198062046         -0.3958
H514       H    0.9224508440    0.5174987914    0.2012955903          0.5709
C455       C    1.0000000000   -0.3659152996    0.5000000000          0.5861
C456       C    0.9695028238   -0.3470904008    0.4991059799          0.5854
C457       C    0.9714512681   -0.3115149550    0.5001199382          0.5865
C458       C    1.0022968265   -0.2947408954    0.5033119403         -0.4105
C459       C    1.0314985957   -0.3136529135    0.5047826557         -0.4093
C460       C    1.0303078164   -0.3484103207    0.5028727665         -0.4112
C461       C    1.0027837459   -0.2544698771    0.5064152856         -0.4075
N462       N    0.9428881059   -0.2910900541    0.4977745014          0.5846
C463       C    0.9336308843   -0.3665184405    0.4979508816          0.5843
H464       H    1.0550746249   -0.3623717496    0.5038418917         -0.4104
H465       H    1.0567945632   -0.3009193371    0.5074818713         -0.4068
C466       C    1.0369255584   -0.2332748023    0.5007008317          0.5876
N467       N    1.0281030804   -0.1950662056    0.5000811163          0.5872
N468       N    1.0054744090   -0.2045035019    0.4846900723          0.5735
N469       N    0.9916610138   -0.2278700170    0.5070790691         -0.4068
C470       C    1.0245145857   -0.1596781048    0.4994255723          0.5869
H471       H    1.0506054139   -0.2417378143    0.4766949435          0.5662
H472       H    1.0547998658   -0.2381281533    0.5226053568          -0.393
H473       H    0.9904359684   -0.2466763109    0.5310788362         -0.3855
C474       C    1.0000000000   -0.1340847004    0.5000000000          0.5875
H475       H    0.9723860764   -0.1411389189    0.5010852178         -0.4116
H476       H    1.0526447319   -0.1535894287    0.4987117567          0.5863
C477       C    0.8979285792   -0.3482736438    0.5037912164         -0.4105
H478       H    0.8977067634   -0.3332109773    0.5281103272         -0.3887
H479       H    0.8911225239   -0.3313462581    0.4817732815            0.57
H480       H    0.8773280078   -0.3679775933    0.5057443306         -0.4089
H481       H    0.9315231731   -0.3803212925    0.4729965717           0.562
H482       H    0.9340089118   -0.3861765578    0.5187103729         -0.3974
H483       H    0.9326121675   -0.2801937954    0.5198246440         -0.3958
H484       H    0.9224508440   -0.2987044097    0.4825012086          0.5709
C425       C    1.0000000000    0.1340847004    0.5000000000          0.5861
C426       C    1.0011475775    0.1529095992    0.4695113121          0.5854
C427       C    1.0001174526    0.1884850450    0.4714512578          0.5865
C428       C    0.9966690758    0.2052591046    0.5022692079         -0.4105
C429       C    0.9949555944    0.1863470865    0.5314577383         -0.4093
C430       C    0.9968753191    0.1515896793    0.5302828812         -0.4112
C431       C    0.9935617889    0.2455301229    0.5027303057         -0.4075
N432       N    1.0027003151    0.2089099459    0.4429085857          0.5846
C433       C    1.0026009160    0.1334815595    0.4336502175          0.5843
H434       H    0.9957002878    0.1376282504    0.5550407750         -0.4104
H435       H    0.9920461326    0.1990806629    0.5567303869         -0.4068
C436       C    0.9989921514    0.2667251977    0.5369184543          0.5876
N437       N    0.9996852054    0.3049337944    0.5281014343          0.5872
N438       N    1.0152638779    0.2954964981    0.5056015239          0.5735
N439       N    0.9929905155    0.2721299830    0.4916024387         -0.4068
C440       C    1.0003705657    0.3403218952    0.5245185146          0.5869
H441       H    1.0228834597    0.2582621857    0.5507974492          0.5662
H442       H    0.9769397561    0.2618718467    0.5546100045          -0.393
H443       H    0.9690017645    0.2533236891    0.4901778742         -0.3855
C444       C    1.0000000000    0.3659152996    0.5000000000          0.5875
H445       H    0.9991444334    0.3588610811    0.4723780073         -0.4116
H446       H    1.0008504505    0.3464105713    0.5526536238          0.5863
C447       C    0.9970576528    0.1517263562    0.3979005835         -0.4105
H448       H    0.9727412273    0.1667890227    0.3974765585         -0.3887
H449       H    1.0191314199    0.1686537419    0.3912778457            0.57
H450       H    0.9952759028    0.1320224067    0.3772844838         -0.4089
H451       H    1.0275718892    0.1196787075    0.4317500777           0.562
H452       H    0.9818389991    0.1138234422    0.4338556138         -0.3974
H453       H    0.9807363807    0.2198062046    0.4324496524         -0.3958
H454       H    1.0181430185    0.2012955903    0.4225990299          0.5709
C395       C    0.6340847004   -0.0000000000    0.5000000000          0.5861
C396       C    0.6529095992    0.0281232374    0.5118304922          0.5854
C397       C    0.6884850450    0.0259297590    0.5119453790          0.5865
C398       C    0.7052591046   -0.0034632457    0.5020616231         -0.4105
C399       C    0.6863470865   -0.0306467529    0.4912929990         -0.4093
C400       C    0.6515896793   -0.0287713025    0.4900486848         -0.4112
C401       C    0.7455301229   -0.0051929841    0.5046838069         -0.4075
N402       N    0.7089099459    0.0528947881    0.5216532374          0.5846
C403       C    0.6334815595    0.0612457779    0.5256517658          0.5843
H404       H    0.6376282504   -0.0517110158    0.4806623351         -0.4104
H405       H    0.6990806629   -0.0547852947    0.4832616520         -0.4068
C406       C    0.7667251977   -0.0338930010    0.4853285138          0.5876
N407       N    0.8049337944   -0.0256075706    0.4884223477          0.5872
N408       N    0.7954964981    0.0013657198    0.4837982147          0.5735
N409       N    0.7721299830    0.0046535533    0.5098993106         -0.4068
C410       C    0.8403218952   -0.0220702360    0.4893135805          0.5869
H411       H    0.7582621857   -0.0363889535    0.4578114040          0.5662
H412       H    0.7618718467   -0.0592402705    0.4978510941          -0.393
H413       H    0.7533236891   -0.0041818944    0.5322471165         -0.3855
C414       C    0.8659152996   -0.0000000000    0.5000000000          0.5875
H415       H    0.8588610811    0.0246788763    0.5124362188         -0.4116
H416       H    0.8464105713   -0.0473728598    0.4770013149          0.5863
C417       C    0.6517263562    0.0913136609    0.5457685875         -0.4105
H418       H    0.6667890227    0.0814328704    0.5679910609         -0.3887
H419       H    0.6686537419    0.1066357865    0.5285539334            0.57
H420       H    0.6320224067    0.1092505248    0.5560868776         -0.4089
H421       H    0.6196787075    0.0735098015    0.5038170741           0.562
H422       H    0.6138234422    0.0522949366    0.5443862747         -0.3974
H423       H    0.7198062046    0.0531040067    0.5459793536         -0.3958
H424       H    0.7012955903    0.0778250658    0.5162277055          0.5709
C365       C    1.3659152996   -0.0000000000    0.5000000000          0.5861
C366       C    1.3470904008   -0.0291996444    0.5088463434          0.5854
C367       C    1.3115149550   -0.0270299523    0.5091883707          0.5865
C368       C    1.2947408954    0.0032304547    0.5024100878         -0.4105
C369       C    1.3136529135    0.0313851888    0.4945222949         -0.4093
C370       C    1.3484103207    0.0296490806    0.4930899680         -0.4112
C371       C    1.2544698771    0.0046785664    0.5051977060         -0.4075
N372       N    1.2910900541   -0.0548572439    0.5160438177          0.5846
C373       C    1.3665184405   -0.0635782825    0.5191536003          0.5843
H374       H    1.3623717496    0.0534394312    0.4861363199         -0.4104
H375       H    1.3009193371    0.0562271898    0.4890408062         -0.4068
C376       C    1.2332748023    0.0352332162    0.4889271277          0.5876
N377       N    1.1950662056    0.0266713224    0.4911439135          0.5872
N378       N    1.2045035019    0.0003239878    0.4837439836          0.5735
N379       N    1.2278700170   -0.0056563010    0.5093625941         -0.4068
C380       C    1.1596781048    0.0230605672    0.4916630269          0.5869
H381       H    1.2417378143    0.0405729375    0.4618179321          0.5662
H382       H    1.2381281533    0.0591431778    0.5040139704          -0.393
H383       H    1.2466763109    0.0008108842    0.5325070335         -0.3855
C384       C    1.1340847004   -0.0000000000    0.5000000000          0.5875
H385       H    1.1411389189   -0.0258367981    0.5098064436         -0.4116
H386       H    1.1535894287    0.0495048703    0.4820446336          0.5863
C387       C    1.3482736438   -0.0955724782    0.5360395572         -0.4105
H388       H    1.3332109773   -0.0880525868    0.5591678857         -0.3887
H389       H    1.3313462581   -0.1090242821    0.5173269727            0.57
H390       H    1.3679775933   -0.1144837914    0.5444395829         -0.4089
H391       H    1.3803212925   -0.0735087898    0.4961634925           0.562
H392       H    1.3861765578   -0.0566211379    0.5387162566         -0.3974
H393       H    1.2801937954   -0.0575912531    0.5402167136         -0.3958
H394       H    1.2987044097   -0.0790893955    0.5080589587          0.5709
C335       C   -0.0000000000   -0.3659152996    0.0000000000          0.5861
C336       C    0.0298251095   -0.3470904008    0.0064296090          0.5854
C337       C    0.0280937490   -0.3115149550    0.0050779665          0.5865
C338       C   -0.0016556888   -0.2947408954   -0.0036746504         -0.4105
C339       C   -0.0301020676   -0.3136529135   -0.0104355574         -0.4093
C340       C   -0.0292787783   -0.3484103207   -0.0083408434         -0.4112
C341       C   -0.0015696634   -0.2544698771   -0.0068147845         -0.4075
N342       N    0.0557529863   -0.2910900541    0.0125827584          0.5846
C343       C    0.0648876982   -0.3665184405    0.0140941488          0.5843
H344       H   -0.0534555575   -0.3623717496   -0.0138013698         -0.4104
H345       H   -0.0544842896   -0.3009193371   -0.0176935863         -0.4068
C346       C   -0.0361812874   -0.2332748023   -0.0074096200          0.5876
N347       N   -0.0276189485   -0.1950662056   -0.0051945540          0.5872
N348       N   -0.0081694013   -0.2045035019    0.0140578775          0.5735
N349       N    0.0094881097   -0.2278700170   -0.0054431318         -0.4068
C350       C   -0.0242096975   -0.1596781048   -0.0038968485          0.5869
H351       H   -0.0540017652   -0.2417378143    0.0137055803          0.5662
H352       H   -0.0497704155   -0.2381281533   -0.0322014470          -0.393
H353       H    0.0150606796   -0.2466763109   -0.0288191029         -0.3855
C354       C   -0.0000000000   -0.1340847004   -0.0000000000          0.5875
H355       H    0.0273502355   -0.1411389189    0.0039586725         -0.4116
H356       H   -0.0519999382   -0.1535894287   -0.0083146733          0.5863
C357       C    0.1010566624   -0.3482736438    0.0148492174         -0.4105
H358       H    0.1057008791   -0.3332109773   -0.0090233526         -0.3887
H359       H    0.1037417560   -0.3313462581    0.0377381256            0.57
H360       H    0.1216686387   -0.3679775933    0.0166780508         -0.4089
H361       H    0.0624184944   -0.3803212925    0.0390152857           0.562
H362       H    0.0682942353   -0.3861765578   -0.0063874256         -0.3974
H363       H    0.0698704502   -0.2801937954   -0.0072288774         -0.3958
H364       H    0.0730691551   -0.2987044097    0.0313205664          0.5709
C305       C    0.0000000000    0.1340847004    0.0000000000          0.5861
C306       C   -0.0289600444    0.1529095992    0.0096017111          0.5854
C307       C   -0.0267822013    0.1884850450    0.0098872734          0.5865
C308       C    0.0032919580    0.2052591046    0.0023253758         -0.4105
C309       C    0.0312323393    0.1863470865   -0.0062909704         -0.4093
C310       C    0.0294596174    0.1515896793   -0.0076777253         -0.4112
C311       C    0.0048119793    0.2455301229    0.0050744445         -0.4075
N312       N   -0.0544220618    0.2089099459    0.0174631179          0.5846
C313       C   -0.0630593937    0.1334815595    0.0207983479          0.5843
H314       H    0.0530613483    0.1376282504   -0.0152468933         -0.4104
H315       H    0.0559235997    0.1990806629   -0.0124157883         -0.4068
C316       C    0.0349337552    0.2667251977   -0.0119841884          0.5876
N317       N    0.0264323221    0.3049337944   -0.0095457871          0.5872
N318       N   -0.0000983108    0.2954964981   -0.0162589475          0.5735
N319       N   -0.0054112347    0.2721299830    0.0095063373         -0.4068
C320       C    0.0228362669    0.3403218952   -0.0089330731          0.5869
H321       H    0.0395676153    0.2582621857   -0.0392229192          0.5662
H322       H    0.0592274761    0.2618718467    0.0024765934          -0.393
H323       H    0.0016548594    0.2533236891    0.0324750089         -0.3855
C324       C    0.0000000000    0.3659152996    0.0000000000          0.5875
H325       H   -0.0255733973    0.3588610811    0.0104741501         -0.4116
H326       H    0.0490218483    0.3464105713   -0.0192350139          0.5863
C327       C   -0.0946042478    0.1517263562    0.0385095387         -0.4105
H328       H   -0.0864862210    0.1667890227    0.0614347648         -0.3887
H329       H   -0.1085375037    0.1686537419    0.0201526265            0.57
H330       H   -0.1132910227    0.1320224067    0.0473978816         -0.4089
H331       H   -0.0735836335    0.1196787075   -0.0019260973           0.562
H332       H   -0.0555965289    0.1138234422    0.0401737197         -0.3974
H333       H   -0.0565273481    0.2198062046    0.0416988657         -0.3958
H334       H   -0.0788534165    0.2012955903    0.0101102919          0.5709
C275       C   -0.1340847004   -0.0000000000    0.0000000000          0.5861
C276       C   -0.1529095992   -0.0150827277    0.0265214697          0.5854
C277       C   -0.1884850450   -0.0132738530    0.0252754684          0.5865
C278       C   -0.2052591046    0.0040021309   -0.0004767689         -0.4105
C279       C   -0.1863470865    0.0189871848   -0.0255836303         -0.4093
C280       C   -0.1515896793    0.0167419579   -0.0254268238         -0.4112
C281       C   -0.2455301229    0.0069717532    0.0005475289         -0.4075
N282       N   -0.2089099459   -0.0287323216    0.0494082482          0.5846
C283       C   -0.1334815595   -0.0329150512    0.0576685166          0.5843
H284       H   -0.1376282504    0.0292054065   -0.0468510264         -0.4104
H285       H   -0.1990806629    0.0332269518   -0.0466644456         -0.4068
C286       C   -0.2667251977    0.0179248302   -0.0322906873          0.5876
N287       N   -0.3049337944    0.0132425983   -0.0247875633          0.5872
N288       N   -0.2954964981   -0.0109587527   -0.0120111939          0.5735
N289       N   -0.2721299830    0.0023452835    0.0106841731         -0.4068
C290       C   -0.3403218952    0.0109817032   -0.0219248050          0.5869
H291       H   -0.2582621857    0.0031298860   -0.0556258697          0.5662
H292       H   -0.2618718467    0.0456518264   -0.0378145235          -0.393
H293       H   -0.2533236891    0.0229719594    0.0230142096         -0.3855
C294       C   -0.3659152996   -0.0000000000    0.0000000000          0.5875
H295       H   -0.3588610811   -0.0119830362    0.0249020745         -0.4116
H296       H   -0.3464105713    0.0235347627   -0.0471088347          0.5863
C297       C   -0.1517263562   -0.0444882771    0.0919442302         -0.4105
H298       H   -0.1667890227   -0.0231093218    0.1035377032         -0.3887
H299       H   -0.1686537419   -0.0671281497    0.0876374896            0.57
H300       H   -0.1320224067   -0.0524177189    0.1110576326         -0.4089
H301       H   -0.1196787075   -0.0559468950    0.0478351953           0.562
H302       H   -0.1138234422   -0.0143994516    0.0670638321         -0.3974
H303       H   -0.2198062046   -0.0140697373    0.0688199025         -0.3958
H304       H   -0.2012955903   -0.0518026161    0.0603039656          0.5709
C245       C    0.3659152996   -0.0000000000    0.0000000000          0.5861
C246       C    0.3470904008    0.0184383040   -0.0243085576          0.5854
C247       C    0.3115149550    0.0164813300   -0.0233111612          0.5865
C248       C    0.2947408954   -0.0040300745   -0.0000534822         -0.4105
C249       C    0.3136529135   -0.0221855902    0.0228655836         -0.4093
C250       C    0.3484103207   -0.0199392346    0.0230052917         -0.4112
C251       C    0.2544698771   -0.0068392730   -0.0014592725         -0.4075
N252       N    0.2910900541    0.0349781009   -0.0452023644          0.5846
C253       C    0.3665184405    0.0402104129   -0.0528410929          0.5843
H254       H    0.3623717496   -0.0351109120    0.0426051440         -0.4104
H255       H    0.3009193371   -0.0390730295    0.0418915167         -0.4068
C256       C    0.2332748023   -0.0220141538    0.0296540901          0.5876
N257       N    0.1950662056   -0.0163862073    0.0228315990          0.5872
N258       N    0.2045035019    0.0092846774    0.0133475767          0.5735
N259       N    0.2278700170   -0.0009204065   -0.0108997597         -0.4068
C260       C    0.1596781048   -0.0137685995    0.0202908982          0.5869
H261       H    0.2417378143   -0.0104152094    0.0547316817          0.5662
H262       H    0.2381281533   -0.0502266811    0.0314850433          -0.393
H263       H    0.2466763109   -0.0197471915   -0.0258343413         -0.3855
C264       C    0.1340847004   -0.0000000000    0.0000000000          0.5875
H265       H    0.1411389189    0.0151526295   -0.0231106964         -0.4116
H266       H    0.1535894287   -0.0295233709    0.0436061686          0.5863
C267       C    0.3482736438    0.0561890317   -0.0852979541         -0.4105
H268       H    0.3332109773    0.0365196685   -0.0996012578         -0.3887
H269       H    0.3313462581    0.0780662716   -0.0780523883            0.57
H270       H    0.3679775933    0.0665622759   -0.1032030931         -0.4089
H271       H    0.3803212925    0.0617497069   -0.0400653799           0.562
H272       H    0.3861765578    0.0230905900   -0.0645889033         -0.3974
H273       H    0.2801937954    0.0229945872   -0.0663730777         -0.3958
H274       H    0.2987044097    0.0592805175   -0.0529707424          0.5709
C215       C   -0.0000000000    0.0000000000   -0.3659152996          0.5861
C216       C    0.0138537530    0.0271836450   -0.3470904008          0.5854
C217       C    0.0121037684    0.0258562037   -0.3115149550          0.5865
C218       C   -0.0039761324   -0.0006593416   -0.2947408954         -0.4105
C219       C   -0.0177970231   -0.0264253912   -0.3136529135         -0.4093
C220       C   -0.0155613194   -0.0261660441   -0.3484103207         -0.4112
C221       C   -0.0069895012    0.0002280430   -0.2544698771         -0.4075
N222       N    0.0264421361    0.0506708470   -0.2910900541          0.5846
C223       C    0.0302426333    0.0591138016   -0.3665184405          0.5843
H224       H   -0.0270317022   -0.0481379426   -0.3623717496         -0.4104
H225       H   -0.0310575726   -0.0481355169   -0.3009193371         -0.4068
C226       C   -0.0164289759   -0.0330768314   -0.2332748023          0.5876
N227       N   -0.0120948648   -0.0253673796   -0.1950662056          0.5872
N228       N    0.0114967159   -0.0114973284   -0.2045035019          0.5735
N229       N   -0.0028315605    0.0105657075   -0.2278700170         -0.4068
C230       C   -0.0099672892   -0.0224041966   -0.1596781048          0.5869
H231       H   -0.0005820846   -0.0557108136   -0.2417378143          0.5662
H232       H   -0.0438742680   -0.0398632167   -0.2381281533          -0.393
H233       H   -0.0240006645    0.0219392995   -0.2466763109         -0.3855
C234       C   -0.0000000000    0.0000000000   -0.1340847004          0.5875
H235       H    0.0108313831    0.0254241541   -0.1411389189         -0.4116
H236       H   -0.0213552012   -0.0481360857   -0.1535894287          0.5863
C237       C    0.0402358514    0.0938830364   -0.3482736438         -0.4105
H238       H    0.0183489486    0.1044864242   -0.3332109773         -0.3887
H239       H    0.0630490306    0.0906164323   -0.3313462581            0.57
H240       H    0.0472826778    0.1133391521   -0.3679775933         -0.4089
H241       H    0.0537001787    0.0503443321   -0.3803212925           0.562
H242       H    0.0113166403    0.0676523128   -0.3861765578         -0.3974
H243       H    0.0109069423    0.0693914627   -0.2801937954         -0.3958
H244       H    0.0489898721    0.0626104762   -0.2987044097          0.5709
C185       C    0.0000000000    0.0000000000    0.3659152996          0.5861
C186       C    0.0304972679    0.0008908864    0.3470904008          0.5854
C187       C    0.0285487194   -0.0001228717    0.3115149550          0.5865
C188       C   -0.0022971668   -0.0033117043    0.2947408954         -0.4105
C189       C   -0.0314990870   -0.0047794191    0.3136529135         -0.4093
C190       C   -0.0303081115   -0.0028696522    0.3484103207         -0.4112
C191       C   -0.0027844051   -0.0064149996    0.2544698771         -0.4075
N192       N    0.0571121225    0.0022196301    0.2910900541          0.5846
C193       C    0.0663693259    0.0020422986    0.3665184405          0.5843
H194       H   -0.0550750194   -0.0038362326    0.3623717496         -0.4104
H195       H   -0.0567953317   -0.0074760354    0.3009193371         -0.4068
C196       C   -0.0369256302   -0.0006970374    0.2332748023          0.5876
N197       N   -0.0281030885   -0.0000782286    0.1950662056          0.5872
N198       N   -0.0054728358    0.0153104901    0.2045035019          0.5735
N199       N    0.0083382587   -0.0070799259    0.2278700170         -0.4068
C200       C   -0.0245145265    0.0005769467    0.1596781048          0.5869
H201       H   -0.0506030189    0.0233102563    0.2417378143          0.5662
H202       H   -0.0548021883   -0.0225997258    0.2381281533          -0.393
H203       H    0.0095608380   -0.0310798188    0.2466763109         -0.3855
C204       C   -0.0000000000    0.0000000000    0.1340847004          0.5875
H205       H    0.0276138119   -0.0010880552    0.1411389189         -0.4116
H206       H   -0.0526445992    0.0012936528    0.1535894287          0.5863
C207       C    0.1020710307   -0.0038017047    0.3482736438         -0.4105
H208       H    0.1022903476   -0.0281208380    0.3332109773         -0.3887
H209       H    0.1088793484    0.0182155308    0.3313462581            0.57
H210       H    0.1226714013   -0.0057569357    0.3679775933         -0.4089
H211       H    0.0684796013    0.0269963919    0.3803212925           0.562
H212       H    0.0659891653   -0.0187171537    0.3861765578         -0.3974
H213       H    0.0673857951   -0.0198315683    0.2801937954         -0.3958
H214       H    0.0775509537    0.0174908228    0.2987044097          0.5709
loop_
_geom_bond_atom_site_label_1
_geom_bond_atom_site_label_2
_geom_bond_distance
_geom_bond_site_symmetry_2
_ccdc_geom_bond_type
Zn1          O5 1.942       .   S
Zn1          O6 1.922       .   S
Zn1         O10 1.922       .   S
Zn1         O17 1.922       .   S
Zn2          O5 1.942       .   S
Zn2          O7 1.922       .   S
Zn2          O9 1.922       .   S
Zn2         O13 1.922       .   S
Zn3          O5 1.942       .   S
Zn3          O8 1.922       .   S
Zn3         O11 1.922       .   S
Zn3         O14 1.922       .   S
Zn4          O5 1.942       .   S
Zn4         O12 1.922       .   S
Zn4         O15 1.922       .   S
Zn4         O16 1.922       .   S
O6          C18 1.304       .   A
O7          C19 1.304       .   A
O8          C20 1.304       .   A
O9          C18 1.304       .   A
O10         C20 1.304       .   A
O11         C19 1.304       .   A
O12         C21 1.304       .   A
O13         C22 1.304       .   A
O14         C21 1.304       .   A
O15         C22 1.304       .   A
O16         C23 1.304       .   A
O17         C23 1.304       .   A
C18        C305 1.540       .   S
C19        C234 1.540       .   S
C20        C264 1.540       .   S
C21        C354 1.540       .   S
C22        C275 1.540       .   S
C23        C204 1.540       .   S
Zn24        O28 1.942       .   S
Zn24        O29 1.922       .   S
Zn24        O33 1.922       .   S
Zn24        O40 1.922       .   S
Zn25        O28 1.942       .   S
Zn25        O30 1.922       .   S
Zn25        O32 1.922       .   S
Zn25        O36 1.922       .   S
Zn26        O28 1.942       .   S
Zn26        O31 1.922       .   S
Zn26        O34 1.922       .   S
Zn26        O37 1.922       .   S
Zn27        O28 1.942       .   S
Zn27        O35 1.922       .   S
Zn27        O38 1.922       .   S
Zn27        O39 1.922       .   S
O29         C41 1.304       .   A
O30         C42 1.304       .   A
O31         C43 1.304       .   A
O32         C41 1.304       .   A
O33         C43 1.304       .   A
O34         C42 1.304       .   A
O35         C44 1.304       .   A
O36         C45 1.304       .   A
O37         C44 1.304       .   A
O38         C45 1.304       .   A
O39         C46 1.304       .   A
O40         C46 1.304       .   A
C41        C185 1.540   1_655   S
C42        C384 1.540       .   S
C43        C425 1.540       .   S
C44        C215 1.540   1_656   S
C45        C474 1.540       .   S
C46        C414 1.540       .   S
Zn47        O51 1.942       .   S
Zn47        O52 1.922       .   S
Zn47        O56 1.922       .   S
Zn47        O63 1.922       .   S
Zn48        O51 1.942       .   S
Zn48        O53 1.922       .   S
Zn48        O55 1.922       .   S
Zn48        O59 1.922       .   S
Zn49        O51 1.942       .   S
Zn49        O54 1.922       .   S
Zn49        O57 1.922       .   S
Zn49        O60 1.922       .   S
Zn50        O51 1.942       .   S
Zn50        O58 1.922       .   S
Zn50        O61 1.922       .   S
Zn50        O62 1.922       .   S
O52         C64 1.304       .   A
O53         C65 1.304       .   A
O54         C66 1.304       .   A
O55         C64 1.304       .   A
O56         C66 1.304       .   A
O57         C65 1.304       .   A
O58         C67 1.304       .   A
O59         C68 1.304       .   A
O60         C67 1.304       .   A
O61         C68 1.304       .   A
O62         C69 1.304       .   A
O63         C69 1.304       .   A
C64        C324 1.540   1_655   S
C65        C485 1.540       .   S
C66        C545 1.540       .   S
C67        C335 1.540   1_665   S
C68        C575 1.540       .   S
C69        C515 1.540       .   S
Zn70        O74 1.942       .   S
Zn70        O75 1.922       .   S
Zn70        O79 1.922       .   S
Zn70        O86 1.922       .   S
Zn71        O74 1.942       .   S
Zn71        O76 1.922       .   S
Zn71        O78 1.922       .   S
Zn71        O82 1.922       .   S
Zn72        O74 1.942       .   S
Zn72        O77 1.922       .   S
Zn72        O80 1.922       .   S
Zn72        O83 1.922       .   S
Zn73        O74 1.942       .   S
Zn73        O81 1.922       .   S
Zn73        O84 1.922       .   S
Zn73        O85 1.922       .   S
O75         C87 1.304       .   A
O76         C88 1.304       .   A
O77         C89 1.304       .   A
O78         C87 1.304       .   A
O79         C89 1.304       .   A
O80         C88 1.304       .   A
O81         C90 1.304       .   A
O82         C91 1.304       .   A
O83         C90 1.304       .   A
O84         C91 1.304       .   A
O85         C92 1.304       .   A
O86         C92 1.304       .   A
C87        C444 1.540       .   S
C88        C504 1.540       .   S
C89        C635 1.540       .   S
C90        C455 1.540   1_565   S
C91        C605 1.540       .   S
C92        C534 1.540   1_556   S
Zn93        O97 1.942       .   S
Zn93        O98 1.922       .   S
Zn93       O102 1.922       .   S
Zn93       O109 1.922       .   S
Zn94        O97 1.942       .   S
Zn94        O99 1.922       .   S
Zn94       O101 1.922       .   S
Zn94       O105 1.922       .   S
Zn95        O97 1.942       .   S
Zn95       O100 1.922       .   S
Zn95       O103 1.922       .   S
Zn95       O106 1.922       .   S
Zn96        O97 1.942       .   S
Zn96       O104 1.922       .   S
Zn96       O107 1.922       .   S
Zn96       O108 1.922       .   S
O98        C110 1.304       .   A
O99        C111 1.304       .   A
O100       C112 1.304       .   A
O101       C110 1.304       .   A
O102       C112 1.304       .   A
O103       C111 1.304       .   A
O104       C113 1.304       .   A
O105       C114 1.304       .   A
O106       C113 1.304       .   A
O107       C114 1.304       .   A
O108       C115 1.304       .   A
O109       C115 1.304       .   A
C110       C665 1.540       .   S
C111       C755 1.540       .   S
C112       C245 1.540   1_565   S
C113       C695 1.540       .   S
C114       C294 1.540   1_665   S
C115       C725 1.540       .   S
Zn116      O120 1.942       .   S
Zn116      O121 1.922       .   S
Zn116      O125 1.922       .   S
Zn116      O132 1.922       .   S
Zn117      O120 1.942       .   S
Zn117      O122 1.922       .   S
Zn117      O124 1.922       .   S
Zn117      O128 1.922       .   S
Zn118      O120 1.942       .   S
Zn118      O123 1.922       .   S
Zn118      O126 1.922       .   S
Zn118      O129 1.922       .   S
Zn119      O120 1.942       .   S
Zn119      O127 1.922       .   S
Zn119      O130 1.922       .   S
Zn119      O131 1.922       .   S
O121       C133 1.304       .   A
O122       C134 1.304       .   A
O123       C135 1.304       .   A
O124       C133 1.304       .   A
O125       C135 1.304       .   A
O126       C134 1.304       .   A
O127       C136 1.304       .   A
O128       C137 1.304       .   A
O129       C136 1.304       .   A
O130       C137 1.304       .   A
O131       C138 1.304       .   A
O132       C138 1.304       .   A
C133       C365 1.540   1_465   S
C134       C684 1.540       .   S
C135       C785 1.540       .   S
C136       C395 1.540   1_565   S
C137       C815 1.540       .   S
C138       C714 1.540   1_556   S
Zn139      O143 1.942       .   S
Zn139      O144 1.922       .   S
Zn139      O148 1.922       .   S
Zn139      O155 1.922       .   S
Zn140      O143 1.942       .   S
Zn140      O145 1.922       .   S
Zn140      O147 1.922       .   S
Zn140      O151 1.922       .   S
Zn141      O143 1.942       .   S
Zn141      O146 1.922       .   S
Zn141      O149 1.922       .   S
Zn141      O152 1.922       .   S
Zn142      O143 1.942       .   S
Zn142      O150 1.922       .   S
Zn142      O153 1.922       .   S
Zn142      O154 1.922       .   S
O144       C156 1.304       .   A
O145       C157 1.304       .   A
O146       C158 1.304       .   A
O147       C156 1.304       .   A
O148       C158 1.304       .   A
O149       C157 1.304       .   A
O150       C159 1.304       .   A
O151       C160 1.304       .   A
O152       C159 1.304       .   A
O153       C160 1.304       .   A
O154       C161 1.304       .   A
O155       C161 1.304       .   A
C156       C564 1.540   1_455   S
C157       C744 1.540   1_545   S
C158       C894 1.540       .   S
C159       C594 1.540       .   S
C160       C864 1.540       .   S
C161       C774 1.540       .   S
Zn162      O166 1.942       .   S
Zn162      O167 1.922       .   S
Zn162      O171 1.922       .   S
Zn162      O178 1.922       .   S
Zn163      O166 1.942       .   S
Zn163      O168 1.922       .   S
Zn163      O170 1.922       .   S
Zn163      O174 1.922       .   S
Zn164      O166 1.942       .   S
Zn164      O169 1.922       .   S
Zn164      O172 1.922       .   S
Zn164      O175 1.922       .   S
Zn165      O166 1.942       .   S
Zn165      O173 1.922       .   S
Zn165      O176 1.922       .   S
Zn165      O177 1.922       .   S
O167       C179 1.304       .   A
O168       C180 1.304       .   A
O169       C181 1.304       .   A
O170       C179 1.304       .   A
O171       C181 1.304       .   A
O172       C180 1.304       .   A
O173       C182 1.304       .   A
O174       C183 1.304       .   A
O175       C182 1.304       .   A
O176       C183 1.304       .   A
O177       C184 1.304       .   A
O178       C184 1.304       .   A
C179       C624 1.540   1_455   S
C180       C804 1.540   1_545   S
C181       C845 1.540       .   S
C182       C654 1.540       .   S
C183       C875 1.540   1_556   S
C184       C834 1.540       .   S
C875       C876 0.032       .   A
C875       C880 0.031       .   A
C876       C877 0.032       .   A
C876       C883 0.036       .   A
C877       C878 0.031       .   A
C877       N882 0.031       .   A
C878       C879 0.031       .   A
C878       C881 0.036       .   A
C879       C880 0.031       .   A
C879       H885 0.025       .   A
C880       H884 0.025       .   A
C881       C886 0.036       .   A
C881       N889 0.026       .   A
C881       H893 0.026       .   A
N882       H903 0.024       .   A
N882       H904 0.024       .   A
C883       C897 0.036       .   A
C883       H901 0.025       .   A
C883       H902 0.025       .   A
C886       N887 0.035       .   A
C886       H891 0.026       .   A
C886       H892 0.026       .   A
N887       N888 0.026       .   A
N887       C890 0.032       .   A
N888       N889 0.031       .   A
C890       C894 0.032       .   A
C890       H896 0.026       .   A
C894       H895 0.025       .   A
C897       H898 0.025       .   A
C897       H899 0.025       .   A
C897       H900 0.025       .   A
C845       C846 0.032       .   A
C845       C850 0.031       .   A
C846       C847 0.032       .   A
C846       C853 0.036       .   A
C847       C848 0.031       .   A
C847       N852 0.031       .   A
C848       C849 0.031       .   A
C848       C851 0.036       .   A
C849       C850 0.031       .   A
C849       H855 0.025       .   A
C850       H854 0.025       .   A
C851       C856 0.036       .   A
C851       N859 0.026       .   A
C851       H863 0.026       .   A
N852       H873 0.024       .   A
N852       H874 0.024       .   A
C853       C867 0.036       .   A
C853       H871 0.025       .   A
C853       H872 0.025       .   A
C856       N857 0.035       .   A
C856       H861 0.026       .   A
C856       H862 0.026       .   A
N857       N858 0.026       .   A
N857       C860 0.032       .   A
N858       N859 0.031       .   A
C860       C864 0.032       .   A
C860       H866 0.026       .   A
C864       H865 0.025       .   A
C867       H868 0.025       .   A
C867       H869 0.025       .   A
C867       H870 0.025       .   A
C815       C816 0.032       .   A
C815       C820 0.031       .   A
C816       C817 0.032       .   A
C816       C823 0.036       .   A
C817       C818 0.031       .   A
C817       N822 0.031       .   A
C818       C819 0.031       .   A
C818       C821 0.036       .   A
C819       C820 0.031       .   A
C819       H825 0.025       .   A
C820       H824 0.025       .   A
C821       C826 0.036       .   A
C821       N829 0.026       .   A
C821       H833 0.026       .   A
N822       H843 0.024       .   A
N822       H844 0.024       .   A
C823       C837 0.036       .   A
C823       H841 0.025       .   A
C823       H842 0.025       .   A
C826       N827 0.035       .   A
C826       H831 0.026       .   A
C826       H832 0.026       .   A
N827       N828 0.026       .   A
N827       C830 0.032       .   A
N828       N829 0.031       .   A
C830       C834 0.032       .   A
C830       H836 0.026       .   A
C834       H835 0.025       .   A
C837       H838 0.025       .   A
C837       H839 0.025       .   A
C837       H840 0.025       .   A
C785       C786 0.032       .   A
C785       C790 0.031       .   A
C786       C787 0.032       .   A
C786       C793 0.036       .   A
C787       C788 0.031       .   A
C787       N792 0.031       .   A
C788       C789 0.031       .   A
C788       C791 0.036       .   A
C789       C790 0.031       .   A
C789       H795 0.025       .   A
C790       H794 0.025       .   A
C791       C796 0.036       .   A
C791       N799 0.026       .   A
C791       H803 0.026       .   A
N792       H813 0.024       .   A
N792       H814 0.024       .   A
C793       C807 0.036       .   A
C793       H811 0.025       .   A
C793       H812 0.025       .   A
C796       N797 0.035       .   A
C796       H801 0.026       .   A
C796       H802 0.026       .   A
N797       N798 0.026       .   A
N797       C800 0.032       .   A
N798       N799 0.031       .   A
C800       C804 0.032       .   A
C800       H806 0.026       .   A
C804       H805 0.025       .   A
C807       H808 0.025       .   A
C807       H809 0.025       .   A
C807       H810 0.025       .   A
C755       C756 0.032       .   A
C755       C760 0.031       .   A
C756       C757 0.032       .   A
C756       C763 0.036       .   A
C757       C758 0.031       .   A
C757       N762 0.031       .   A
C758       C759 0.031       .   A
C758       C761 0.036       .   A
C759       C760 0.031       .   A
C759       H765 0.025       .   A
C760       H764 0.025       .   A
C761       C766 0.036       .   A
C761       N769 0.026       .   A
C761       H773 0.026       .   A
N762       H783 0.024       .   A
N762       H784 0.024       .   A
C763       C777 0.036       .   A
C763       H781 0.025       .   A
C763       H782 0.025       .   A
C766       N767 0.035       .   A
C766       H771 0.026       .   A
C766       H772 0.026       .   A
N767       N768 0.026       .   A
N767       C770 0.032       .   A
N768       N769 0.031       .   A
C770       C774 0.032       .   A
C770       H776 0.026       .   A
C774       H775 0.025       .   A
C777       H778 0.025       .   A
C777       H779 0.025       .   A
C777       H780 0.025       .   A
C725       C726 0.032       .   A
C725       C730 0.031       .   A
C726       C727 0.032       .   A
C726       C733 0.036       .   A
C727       C728 0.031       .   A
C727       N732 0.031       .   A
C728       C729 0.031       .   A
C728       C731 0.036       .   A
C729       C730 0.031       .   A
C729       H735 0.025       .   A
C730       H734 0.025       .   A
C731       C736 0.036       .   A
C731       N739 0.026       .   A
C731       H743 0.026       .   A
N732       H753 0.024       .   A
N732       H754 0.024       .   A
C733       C747 0.036       .   A
C733       H751 0.025       .   A
C733       H752 0.025       .   A
C736       N737 0.035       .   A
C736       H741 0.026       .   A
C736       H742 0.026       .   A
N737       N738 0.026       .   A
N737       C740 0.032       .   A
N738       N739 0.031       .   A
C740       C744 0.032       .   A
C740       H746 0.026       .   A
C744       H745 0.025       .   A
C747       H748 0.025       .   A
C747       H749 0.025       .   A
C747       H750 0.025       .   A
C695       C696 0.032       .   A
C695       C700 0.031       .   A
C696       C697 0.032       .   A
C696       C703 0.036       .   A
C697       C698 0.031       .   A
C697       N702 0.031       .   A
C698       C699 0.031       .   A
C698       C701 0.036       .   A
C699       C700 0.031       .   A
C699       H705 0.025       .   A
C700       H704 0.025       .   A
C701       C706 0.036       .   A
C701       N709 0.026       .   A
C701       H713 0.026       .   A
N702       H723 0.024       .   A
N702       H724 0.024       .   A
C703       C717 0.036       .   A
C703       H721 0.025       .   A
C703       H722 0.025       .   A
C706       N707 0.035       .   A
C706       H711 0.026       .   A
C706       H712 0.026       .   A
N707       N708 0.026       .   A
N707       C710 0.032       .   A
N708       N709 0.031       .   A
C710       C714 0.032       .   A
C710       H716 0.026       .   A
C714       H715 0.025       .   A
C717       H718 0.025       .   A
C717       H719 0.025       .   A
C717       H720 0.025       .   A
C665       C666 0.032       .   A
C665       C670 0.031       .   A
C666       C667 0.032       .   A
C666       C673 0.036       .   A
C667       C668 0.031       .   A
C667       N672 0.031       .   A
C668       C669 0.031       .   A
C668       C671 0.036       .   A
C669       C670 0.031       .   A
C669       H675 0.025       .   A
C670       H674 0.025       .   A
C671       C676 0.036       .   A
C671       N679 0.026       .   A
C671       H683 0.026       .   A
N672       H693 0.024       .   A
N672       H694 0.024       .   A
C673       C687 0.036       .   A
C673       H691 0.025       .   A
C673       H692 0.025       .   A
C676       N677 0.035       .   A
C676       H681 0.026       .   A
C676       H682 0.026       .   A
N677       N678 0.026       .   A
N677       C680 0.032       .   A
N678       N679 0.031       .   A
C680       C684 0.032       .   A
C680       H686 0.026       .   A
C684       H685 0.025       .   A
C687       H688 0.025       .   A
C687       H689 0.025       .   A
C687       H690 0.025       .   A
C635       C636 0.032       .   A
C635       C640 0.031       .   A
C636       C637 0.032       .   A
C636       C643 0.036       .   A
C637       C638 0.031       .   A
C637       N642 0.031       .   A
C638       C639 0.031       .   A
C638       C641 0.036       .   A
C639       C640 0.031       .   A
C639       H645 0.025       .   A
C640       H644 0.025       .   A
C641       C646 0.036       .   A
C641       N649 0.026       .   A
C641       H653 0.026       .   A
N642       H663 0.024       .   A
N642       H664 0.024       .   A
C643       C657 0.036       .   A
C643       H661 0.025       .   A
C643       H662 0.025       .   A
C646       N647 0.035       .   A
C646       H651 0.026       .   A
C646       H652 0.026       .   A
N647       N648 0.026       .   A
N647       C650 0.032       .   A
N648       N649 0.031       .   A
C650       C654 0.032       .   A
C650       H656 0.026       .   A
C654       H655 0.025       .   A
C657       H658 0.025       .   A
C657       H659 0.025       .   A
C657       H660 0.025       .   A
C605       C606 0.032       .   A
C605       C610 0.031       .   A
C606       C607 0.032       .   A
C606       C613 0.036       .   A
C607       C608 0.031       .   A
C607       N612 0.031       .   A
C608       C609 0.031       .   A
C608       C611 0.036       .   A
C609       C610 0.031       .   A
C609       H615 0.025       .   A
C610       H614 0.025       .   A
C611       C616 0.036       .   A
C611       N619 0.026       .   A
C611       H623 0.026       .   A
N612       H633 0.024       .   A
N612       H634 0.024       .   A
C613       C627 0.036       .   A
C613       H631 0.025       .   A
C613       H632 0.025       .   A
C616       N617 0.035       .   A
C616       H621 0.026       .   A
C616       H622 0.026       .   A
N617       N618 0.026       .   A
N617       C620 0.032       .   A
N618       N619 0.031       .   A
C620       C624 0.032       .   A
C620       H626 0.026       .   A
C624       H625 0.025       .   A
C627       H628 0.025       .   A
C627       H629 0.025       .   A
C627       H630 0.025       .   A
C575       C576 0.032       .   A
C575       C580 0.031       .   A
C576       C577 0.032       .   A
C576       C583 0.036       .   A
C577       C578 0.031       .   A
C577       N582 0.031       .   A
C578       C579 0.031       .   A
C578       C581 0.036       .   A
C579       C580 0.031       .   A
C579       H585 0.025       .   A
C580       H584 0.025       .   A
C581       C586 0.036       .   A
C581       N589 0.026       .   A
C581       H593 0.026       .   A
N582       H603 0.024       .   A
N582       H604 0.024       .   A
C583       C597 0.036       .   A
C583       H601 0.025       .   A
C583       H602 0.025       .   A
C586       N587 0.035       .   A
C586       H591 0.026       .   A
C586       H592 0.026       .   A
N587       N588 0.026       .   A
N587       C590 0.032       .   A
N588       N589 0.031       .   A
C590       C594 0.032       .   A
C590       H596 0.026       .   A
C594       H595 0.025       .   A
C597       H598 0.025       .   A
C597       H599 0.025       .   A
C597       H600 0.025       .   A
C545       C546 0.032       .   A
C545       C550 0.031       .   A
C546       C547 0.032       .   A
C546       C553 0.036       .   A
C547       C548 0.031       .   A
C547       N552 0.031       .   A
C548       C549 0.031       .   A
C548       C551 0.036       .   A
C549       C550 0.031       .   A
C549       H555 0.025       .   A
C550       H554 0.025       .   A
C551       C556 0.036       .   A
C551       N559 0.026       .   A
C551       H563 0.026       .   A
N552       H573 0.024       .   A
N552       H574 0.024       .   A
C553       C567 0.036       .   A
C553       H571 0.025       .   A
C553       H572 0.025       .   A
C556       N557 0.035       .   A
C556       H561 0.026       .   A
C556       H562 0.026       .   A
N557       N558 0.026       .   A
N557       C560 0.032       .   A
N558       N559 0.031       .   A
C560       C564 0.032       .   A
C560       H566 0.026       .   A
C564       H565 0.025       .   A
C567       H568 0.025       .   A
C567       H569 0.025       .   A
C567       H570 0.025       .   A
C515       C516 0.032       .   A
C515       C520 0.031       .   A
C516       C517 0.032       .   A
C516       C523 0.036       .   A
C517       C518 0.031       .   A
C517       N522 0.031       .   A
C518       C519 0.031       .   A
C518       C521 0.036       .   A
C519       C520 0.031       .   A
C519       H525 0.025       .   A
C520       H524 0.025       .   A
C521       C526 0.036       .   A
C521       N529 0.026       .   A
C521       H533 0.026       .   A
N522       H543 0.024       .   A
N522       H544 0.024       .   A
C523       C537 0.036       .   A
C523       H541 0.025       .   A
C523       H542 0.025       .   A
C526       N527 0.035       .   A
C526       H531 0.026       .   A
C526       H532 0.026       .   A
N527       N528 0.026       .   A
N527       C530 0.032       .   A
N528       N529 0.031       .   A
C530       C534 0.032       .   A
C530       H536 0.026       .   A
C534       H535 0.025       .   A
C537       H538 0.025       .   A
C537       H539 0.025       .   A
C537       H540 0.025       .   A
C485       C486 0.032       .   A
C485       C490 0.031       .   A
C486       C487 0.032       .   A
C486       C493 0.036       .   A
C487       C488 0.031       .   A
C487       N492 0.031       .   A
C488       C489 0.031       .   A
C488       C491 0.036       .   A
C489       C490 0.031       .   A
C489       H495 0.025       .   A
C490       H494 0.025       .   A
C491       C496 0.036       .   A
C491       N499 0.026       .   A
C491       H503 0.026       .   A
N492       H513 0.024       .   A
N492       H514 0.024       .   A
C493       C507 0.036       .   A
C493       H511 0.025       .   A
C493       H512 0.025       .   A
C496       N497 0.035       .   A
C496       H501 0.026       .   A
C496       H502 0.026       .   A
N497       N498 0.026       .   A
N497       C500 0.032       .   A
N498       N499 0.031       .   A
C500       C504 0.032       .   A
C500       H506 0.026       .   A
C504       H505 0.025       .   A
C507       H508 0.025       .   A
C507       H509 0.025       .   A
C507       H510 0.025       .   A
C455       C456 0.032       .   A
C455       C460 0.031       .   A
C456       C457 0.032       .   A
C456       C463 0.036       .   A
C457       C458 0.031       .   A
C457       N462 0.031       .   A
C458       C459 0.031       .   A
C458       C461 0.036       .   A
C459       C460 0.031       .   A
C459       H465 0.025       .   A
C460       H464 0.025       .   A
C461       C466 0.036       .   A
C461       N469 0.026       .   A
C461       H473 0.026       .   A
N462       H483 0.024       .   A
N462       H484 0.024       .   A
C463       C477 0.036       .   A
C463       H481 0.025       .   A
C463       H482 0.025       .   A
C466       N467 0.035       .   A
C466       H471 0.026       .   A
C466       H472 0.026       .   A
N467       N468 0.026       .   A
N467       C470 0.032       .   A
N468       N469 0.031       .   A
C470       C474 0.032       .   A
C470       H476 0.026       .   A
C474       H475 0.025       .   A
C477       H478 0.025       .   A
C477       H479 0.025       .   A
C477       H480 0.025       .   A
C425       C426 0.032       .   A
C425       C430 0.031       .   A
C426       C427 0.032       .   A
C426       C433 0.036       .   A
C427       C428 0.031       .   A
C427       N432 0.031       .   A
C428       C429 0.031       .   A
C428       C431 0.036       .   A
C429       C430 0.031       .   A
C429       H435 0.025       .   A
C430       H434 0.025       .   A
C431       C436 0.036       .   A
C431       N439 0.026       .   A
C431       H443 0.026       .   A
N432       H453 0.024       .   A
N432       H454 0.024       .   A
C433       C447 0.036       .   A
C433       H451 0.025       .   A
C433       H452 0.025       .   A
C436       N437 0.035       .   A
C436       H441 0.026       .   A
C436       H442 0.026       .   A
N437       N438 0.026       .   A
N437       C440 0.032       .   A
N438       N439 0.031       .   A
C440       C444 0.032       .   A
C440       H446 0.026       .   A
C444       H445 0.025       .   A
C447       H448 0.025       .   A
C447       H449 0.025       .   A
C447       H450 0.025       .   A
C395       C396 0.032       .   A
C395       C400 0.031       .   A
C396       C397 0.032       .   A
C396       C403 0.036       .   A
C397       C398 0.031       .   A
C397       N402 0.031       .   A
C398       C399 0.031       .   A
C398       C401 0.036       .   A
C399       C400 0.031       .   A
C399       H405 0.025       .   A
C400       H404 0.025       .   A
C401       C406 0.036       .   A
C401       N409 0.026       .   A
C401       H413 0.026       .   A
N402       H423 0.024       .   A
N402       H424 0.024       .   A
C403       C417 0.036       .   A
C403       H421 0.025       .   A
C403       H422 0.025       .   A
C406       N407 0.035       .   A
C406       H411 0.026       .   A
C406       H412 0.026       .   A
N407       N408 0.026       .   A
N407       C410 0.032       .   A
N408       N409 0.031       .   A
C410       C414 0.032       .   A
C410       H416 0.026       .   A
C414       H415 0.025       .   A
C417       H418 0.025       .   A
C417       H419 0.025       .   A
C417       H420 0.025       .   A
C365       C366 0.032       .   A
C365       C370 0.031       .   A
C366       C367 0.032       .   A
C366       C373 0.036       .   A
C367       C368 0.031       .   A
C367       N372 0.031       .   A
C368       C369 0.031       .   A
C368       C371 0.036       .   A
C369       C370 0.031       .   A
C369       H375 0.025       .   A
C370       H374 0.025       .   A
C371       C376 0.036       .   A
C371       N379 0.026       .   A
C371       H383 0.026       .   A
N372       H393 0.024       .   A
N372       H394 0.024       .   A
C373       C387 0.036       .   A
C373       H391 0.025       .   A
C373       H392 0.025       .   A
C376       N377 0.035       .   A
C376       H381 0.026       .   A
C376       H382 0.026       .   A
N377       N378 0.026       .   A
N377       C380 0.032       .   A
N378       N379 0.031       .   A
C380       C384 0.032       .   A
C380       H386 0.026       .   A
C384       H385 0.025       .   A
C387       H388 0.025       .   A
C387       H389 0.025       .   A
C387       H390 0.025       .   A
C335       C336 0.032       .   A
C335       C340 0.031       .   A
C336       C337 0.032       .   A
C336       C343 0.036       .   A
C337       C338 0.031       .   A
C337       N342 0.031       .   A
C338       C339 0.031       .   A
C338       C341 0.036       .   A
C339       C340 0.031       .   A
C339       H345 0.025       .   A
C340       H344 0.025       .   A
C341       C346 0.036       .   A
C341       N349 0.026       .   A
C341       H353 0.026       .   A
N342       H363 0.024       .   A
N342       H364 0.024       .   A
C343       C357 0.036       .   A
C343       H361 0.025       .   A
C343       H362 0.025       .   A
C346       N347 0.035       .   A
C346       H351 0.026       .   A
C346       H352 0.026       .   A
N347       N348 0.026       .   A
N347       C350 0.032       .   A
N348       N349 0.031       .   A
C350       C354 0.032       .   A
C350       H356 0.026       .   A
C354       H355 0.025       .   A
C357       H358 0.025       .   A
C357       H359 0.025       .   A
C357       H360 0.025       .   A
C305       C306 0.032       .   A
C305       C310 0.031       .   A
C306       C307 0.032       .   A
C306       C313 0.036       .   A
C307       C308 0.031       .   A
C307       N312 0.031       .   A
C308       C309 0.031       .   A
C308       C311 0.036       .   A
C309       C310 0.031       .   A
C309       H315 0.025       .   A
C310       H314 0.025       .   A
C311       C316 0.036       .   A
C311       N319 0.026       .   A
C311       H323 0.026       .   A
N312       H333 0.024       .   A
N312       H334 0.024       .   A
C313       C327 0.036       .   A
C313       H331 0.025       .   A
C313       H332 0.025       .   A
C316       N317 0.035       .   A
C316       H321 0.026       .   A
C316       H322 0.026       .   A
N317       N318 0.026       .   A
N317       C320 0.032       .   A
N318       N319 0.031       .   A
C320       C324 0.032       .   A
C320       H326 0.026       .   A
C324       H325 0.025       .   A
C327       H328 0.025       .   A
C327       H329 0.025       .   A
C327       H330 0.025       .   A
C275       C276 0.032       .   A
C275       C280 0.031       .   A
C276       C277 0.032       .   A
C276       C283 0.036       .   A
C277       C278 0.031       .   A
C277       N282 0.031       .   A
C278       C279 0.031       .   A
C278       C281 0.036       .   A
C279       C280 0.031       .   A
C279       H285 0.025       .   A
C280       H284 0.025       .   A
C281       C286 0.036       .   A
C281       N289 0.026       .   A
C281       H293 0.026       .   A
N282       H303 0.024       .   A
N282       H304 0.024       .   A
C283       C297 0.036       .   A
C283       H301 0.025       .   A
C283       H302 0.025       .   A
C286       N287 0.035       .   A
C286       H291 0.026       .   A
C286       H292 0.026       .   A
N287       N288 0.026       .   A
N287       C290 0.032       .   A
N288       N289 0.031       .   A
C290       C294 0.032       .   A
C290       H296 0.026       .   A
C294       H295 0.025       .   A
C297       H298 0.025       .   A
C297       H299 0.025       .   A
C297       H300 0.025       .   A
C245       C246 0.032       .   A
C245       C250 0.031       .   A
C246       C247 0.032       .   A
C246       C253 0.036       .   A
C247       C248 0.031       .   A
C247       N252 0.031       .   A
C248       C249 0.031       .   A
C248       C251 0.036       .   A
C249       C250 0.031       .   A
C249       H255 0.025       .   A
C250       H254 0.025       .   A
C251       C256 0.036       .   A
C251       N259 0.026       .   A
C251       H263 0.026       .   A
N252       H273 0.024       .   A
N252       H274 0.024       .   A
C253       C267 0.036       .   A
C253       H271 0.025       .   A
C253       H272 0.025       .   A
C256       N257 0.035       .   A
C256       H261 0.026       .   A
C256       H262 0.026       .   A
N257       N258 0.026       .   A
N257       C260 0.032       .   A
N258       N259 0.031       .   A
C260       C264 0.032       .   A
C260       H266 0.026       .   A
C264       H265 0.025       .   A
C267       H268 0.025       .   A
C267       H269 0.025       .   A
C267       H270 0.025       .   A
C215       C216 0.032       .   A
C215       C220 0.031       .   A
C216       C217 0.032       .   A
C216       C223 0.036       .   A
C217       C218 0.031       .   A
C217       N222 0.031       .   A
C218       C219 0.031       .   A
C218       C221 0.036       .   A
C219       C220 0.031       .   A
C219       H225 0.025       .   A
C220       H224 0.025       .   A
C221       C226 0.036       .   A
C221       N229 0.026       .   A
C221       H233 0.026       .   A
N222       H243 0.024       .   A
N222       H244 0.024       .   A
C223       C237 0.036       .   A
C223       H241 0.025       .   A
C223       H242 0.025       .   A
C226       N227 0.035       .   A
C226       H231 0.026       .   A
C226       H232 0.026       .   A
N227       N228 0.026       .   A
N227       C230 0.032       .   A
N228       N229 0.031       .   A
C230       C234 0.032       .   A
C230       H236 0.026       .   A
C234       H235 0.025       .   A
C237       H238 0.025       .   A
C237       H239 0.025       .   A
C237       H240 0.025       .   A
C185       C186 0.032       .   A
C185       C190 0.031       .   A
C186       C187 0.032       .   A
C186       C193 0.036       .   A
C187       C188 0.031       .   A
C187       N192 0.031       .   A
C188       C189 0.031       .   A
C188       C191 0.036       .   A
C189       C190 0.031       .   A
C189       H195 0.025       .   A
C190       H194 0.025       .   A
C191       C196 0.036       .   A
C191       N199 0.026       .   A
C191       H203 0.026       .   A
N192       H213 0.024       .   A
N192       H214 0.024       .   A
C193       C207 0.036       .   A
C193       H211 0.025       .   A
C193       H212 0.025       .   A
C196       N197 0.035       .   A
C196       H201 0.026       .   A
C196       H202 0.026       .   A
N197       N198 0.026       .   A
N197       C200 0.032       .   A
N198       N199 0.031       .   A
C200       C204 0.032       .   A
C200       H206 0.026       .   A
C204       H205 0.025       .   A
C207       H208 0.025       .   A
C207       H209 0.025       .   A
C207       H210 0.025       .   A
