data_pcu_v1-6c_Zn_1_Ch_1-75_fer_tobacco
_audit_creation_date              2021-04-07
_audit_creation_method            'tobacco_3.0'
_symmetry_space_group_name_H-M    'P1'
_symmetry_Int_Tables_number       1
_symmetry_cell_setting            triclinic
loop_
_symmetry_equiv_pos_as_xyz
  x,y,z
_cell_length_a                    35.09998406619701
_cell_length_b                    35.09998406619701
_cell_length_c                    35.09998406619701
_cell_angle_alpha                 90.0
_cell_angle_beta                  90.0
_cell_angle_gamma                 90.0
loop_
_atom_site_label
_atom_site_type_symbol
_atom_site_fract_x
_atom_site_fract_y
_atom_site_fract_z
_atom_site_charge
Zn1       Zn   -0.0319430344   -0.0319430344    0.0319430344          1.4972
Zn2       Zn    0.0319430344    0.0319430344    0.0319430344          1.4936
Zn3       Zn    0.0319430344   -0.0319430344   -0.0319430344          1.4911
Zn4       Zn   -0.0319430344    0.0319430344   -0.0319430344          1.4948
O5         O    0.0000000000    0.0000000000    0.0000000000         -2.2164
O6         O   -0.0234757941   -0.0234757941    0.0853732581         -1.1227
O7         O    0.0853732581    0.0234757941    0.0234757941         -1.1209
O8         O    0.0234757941   -0.0853732581   -0.0234757941          -1.116
O9         O    0.0234757941    0.0234757941    0.0853732581         -1.1228
O10        O   -0.0234757941   -0.0853732581    0.0234757941         -1.1188
O11        O    0.0853732581   -0.0234757941   -0.0234757941         -1.1247
O12        O   -0.0234757941    0.0234757941   -0.0853732581         -1.1186
O13        O    0.0234757941    0.0853732581    0.0234757941         -1.1261
O14        O    0.0234757941   -0.0234757941   -0.0853732581           -1.12
O15        O   -0.0234757941    0.0853732581   -0.0234757941         -1.1247
O16        O   -0.0853732581    0.0234757941   -0.0234757941         -1.1238
O17        O   -0.0853732581   -0.0234757941    0.0234757941         -1.1217
C18        C   -0.0000000000   -0.0000000000    0.1020741204          0.3962
C19        C    0.1020741204   -0.0000000000   -0.0000000000          0.4011
C20        C   -0.0000000000   -0.1020741204    0.0000000000          0.3907
C21        C    0.0000000000    0.0000000000   -0.1020741204          0.3945
C22        C    0.0000000000    0.1020741204   -0.0000000000          0.4058
C23        C   -0.1020741204    0.0000000000    0.0000000000          0.3963
Zn24      Zn    0.9680569656    0.0319430344    0.4680569656          1.4972
Zn25      Zn    1.0319430344   -0.0319430344    0.4680569656          1.4936
Zn26      Zn    1.0319430344    0.0319430344    0.5319430344          1.4911
Zn27      Zn    0.9680569656   -0.0319430344    0.5319430344          1.4948
O28        O    1.0000000000    0.0000000000    0.5000000000         -2.2164
O29        O    0.9765242059    0.0234757941    0.4146267419         -1.1227
O30        O    1.0853732581   -0.0234757941    0.4765242059         -1.1209
O31        O    1.0234757941    0.0853732581    0.5234757941          -1.116
O32        O    1.0234757941   -0.0234757941    0.4146267419         -1.1228
O33        O    0.9765242059    0.0853732581    0.4765242059         -1.1188
O34        O    1.0853732581    0.0234757941    0.5234757941         -1.1247
O35        O    0.9765242059   -0.0234757941    0.5853732581         -1.1186
O36        O    1.0234757941   -0.0853732581    0.4765242059         -1.1261
O37        O    1.0234757941    0.0234757941    0.5853732581           -1.12
O38        O    0.9765242059   -0.0853732581    0.5234757941         -1.1247
O39        O    0.9146267419   -0.0234757941    0.5234757941         -1.1238
O40        O    0.9146267419    0.0234757941    0.4765242059         -1.1217
C41        C    1.0000000000    0.0000000000    0.3979258796          0.3962
C42        C    1.1020741204    0.0000000000    0.5000000000          0.4011
C43        C    1.0000000000    0.1020741204    0.5000000000          0.3907
C44        C    1.0000000000    0.0000000000    0.6020741204          0.3945
C45        C    1.0000000000   -0.1020741204    0.5000000000          0.4058
C46        C    0.8979258796    0.0000000000    0.5000000000          0.3963
Zn47      Zn    1.0319430344    0.4680569656   -0.0319430344          1.4972
Zn48      Zn    0.9680569656    0.4680569656    0.0319430344          1.4936
Zn49      Zn    1.0319430344    0.5319430344    0.0319430344          1.4911
Zn50      Zn    0.9680569656    0.5319430344   -0.0319430344          1.4948
O51        O    1.0000000000    0.5000000000    0.0000000000         -2.2164
O52        O    1.0234757941    0.4146267419   -0.0234757941         -1.1227
O53        O    0.9765242059    0.4765242059    0.0853732581         -1.1209
O54        O    1.0853732581    0.5234757941    0.0234757941          -1.116
O55        O    0.9765242059    0.4146267419    0.0234757941         -1.1228
O56        O    1.0853732581    0.4765242059   -0.0234757941         -1.1188
O57        O    1.0234757941    0.5234757941    0.0853732581         -1.1247
O58        O    0.9765242059    0.5853732581   -0.0234757941         -1.1186
O59        O    0.9146267419    0.4765242059    0.0234757941         -1.1261
O60        O    1.0234757941    0.5853732581    0.0234757941           -1.12
O61        O    0.9146267419    0.5234757941   -0.0234757941         -1.1247
O62        O    0.9765242059    0.5234757941   -0.0853732581         -1.1238
O63        O    1.0234757941    0.4765242059   -0.0853732581         -1.1217
C64        C    1.0000000000    0.3979258796    0.0000000000          0.3962
C65        C    1.0000000000    0.5000000000    0.1020741204          0.4011
C66        C    1.1020741204    0.5000000000    0.0000000000          0.3907
C67        C    1.0000000000    0.6020741204    0.0000000000          0.3945
C68        C    0.8979258796    0.5000000000    0.0000000000          0.4058
C69        C    1.0000000000    0.5000000000   -0.1020741204          0.3963
Zn70      Zn    0.9680569656    0.4680569656    0.5319430344          1.4972
Zn71      Zn    1.0319430344    0.4680569656    0.4680569656          1.4936
Zn72      Zn    0.9680569656    0.5319430344    0.4680569656          1.4911
Zn73      Zn    1.0319430344    0.5319430344    0.5319430344          1.4948
O74        O    1.0000000000    0.5000000000    0.5000000000         -2.2164
O75        O    0.9765242059    0.4146267419    0.5234757941         -1.1227
O76        O    1.0234757941    0.4765242059    0.4146267419         -1.1209
O77        O    0.9146267419    0.5234757941    0.4765242059          -1.116
O78        O    1.0234757941    0.4146267419    0.4765242059         -1.1228
O79        O    0.9146267419    0.4765242059    0.5234757941         -1.1188
O80        O    0.9765242059    0.5234757941    0.4146267419         -1.1247
O81        O    1.0234757941    0.5853732581    0.5234757941         -1.1186
O82        O    1.0853732581    0.4765242059    0.4765242059         -1.1261
O83        O    0.9765242059    0.5853732581    0.4765242059           -1.12
O84        O    1.0853732581    0.5234757941    0.5234757941         -1.1247
O85        O    1.0234757941    0.5234757941    0.5853732581         -1.1238
O86        O    0.9765242059    0.4765242059    0.5853732581         -1.1217
C87        C    1.0000000000    0.3979258796    0.5000000000          0.3962
C88        C    1.0000000000    0.5000000000    0.3979258796          0.4011
C89        C    0.8979258796    0.5000000000    0.5000000000          0.3907
C90        C    1.0000000000    0.6020741204    0.5000000000          0.3945
C91        C    1.1020741204    0.5000000000    0.5000000000          0.4058
C92        C    1.0000000000    0.5000000000    0.6020741204          0.3963
Zn93      Zn    0.4680569656    0.9680569656   -0.0319430344          1.4972
Zn94      Zn    0.4680569656    1.0319430344    0.0319430344          1.4936
Zn95      Zn    0.5319430344    0.9680569656    0.0319430344          1.4911
Zn96      Zn    0.5319430344    1.0319430344   -0.0319430344          1.4948
O97        O    0.5000000000    1.0000000000    0.0000000000         -2.2164
O98        O    0.4146267419    0.9765242059   -0.0234757941         -1.1227
O99        O    0.4765242059    1.0234757941    0.0853732581         -1.1209
O100       O    0.5234757941    0.9146267419    0.0234757941          -1.116
O101       O    0.4146267419    1.0234757941    0.0234757941         -1.1228
O102       O    0.4765242059    0.9146267419   -0.0234757941         -1.1188
O103       O    0.5234757941    0.9765242059    0.0853732581         -1.1247
O104       O    0.5853732581    1.0234757941   -0.0234757941         -1.1186
O105       O    0.4765242059    1.0853732581    0.0234757941         -1.1261
O106       O    0.5853732581    0.9765242059    0.0234757941           -1.12
O107       O    0.5234757941    1.0853732581   -0.0234757941         -1.1247
O108       O    0.5234757941    1.0234757941   -0.0853732581         -1.1238
O109       O    0.4765242059    0.9765242059   -0.0853732581         -1.1217
C110       C    0.3979258796    1.0000000000    0.0000000000          0.3962
C111       C    0.5000000000    1.0000000000    0.1020741204          0.4011
C112       C    0.5000000000    0.8979258796    0.0000000000          0.3907
C113       C    0.6020741204    1.0000000000    0.0000000000          0.3945
C114       C    0.5000000000    1.1020741204    0.0000000000          0.4058
C115       C    0.5000000000    1.0000000000   -0.1020741204          0.3963
Zn116     Zn    0.4680569656    1.0319430344    0.5319430344          1.4972
Zn117     Zn    0.4680569656    0.9680569656    0.4680569656          1.4936
Zn118     Zn    0.5319430344    1.0319430344    0.4680569656          1.4911
Zn119     Zn    0.5319430344    0.9680569656    0.5319430344          1.4948
O120       O    0.5000000000    1.0000000000    0.5000000000         -2.2164
O121       O    0.4146267419    1.0234757941    0.5234757941         -1.1227
O122       O    0.4765242059    0.9765242059    0.4146267419         -1.1209
O123       O    0.5234757941    1.0853732581    0.4765242059          -1.116
O124       O    0.4146267419    0.9765242059    0.4765242059         -1.1228
O125       O    0.4765242059    1.0853732581    0.5234757941         -1.1188
O126       O    0.5234757941    1.0234757941    0.4146267419         -1.1247
O127       O    0.5853732581    0.9765242059    0.5234757941         -1.1186
O128       O    0.4765242059    0.9146267419    0.4765242059         -1.1261
O129       O    0.5853732581    1.0234757941    0.4765242059           -1.12
O130       O    0.5234757941    0.9146267419    0.5234757941         -1.1247
O131       O    0.5234757941    0.9765242059    0.5853732581         -1.1238
O132       O    0.4765242059    1.0234757941    0.5853732581         -1.1217
C133       C    0.3979258796    1.0000000000    0.5000000000          0.3962
C134       C    0.5000000000    1.0000000000    0.3979258796          0.4011
C135       C    0.5000000000    1.1020741204    0.5000000000          0.3907
C136       C    0.6020741204    1.0000000000    0.5000000000          0.3945
C137       C    0.5000000000    0.8979258796    0.5000000000          0.4058
C138       C    0.5000000000    1.0000000000    0.6020741204          0.3963
Zn139     Zn    0.4680569656    0.4680569656   -0.0319430344          1.4972
Zn140     Zn    0.4680569656    0.5319430344    0.0319430344          1.4936
Zn141     Zn    0.5319430344    0.4680569656    0.0319430344          1.4911
Zn142     Zn    0.5319430344    0.5319430344   -0.0319430344          1.4948
O143       O    0.5000000000    0.5000000000    0.0000000000         -2.2164
O144       O    0.4146267419    0.4765242059   -0.0234757941         -1.1227
O145       O    0.4765242059    0.5234757941    0.0853732581         -1.1209
O146       O    0.5234757941    0.4146267419    0.0234757941          -1.116
O147       O    0.4146267419    0.5234757941    0.0234757941         -1.1228
O148       O    0.4765242059    0.4146267419   -0.0234757941         -1.1188
O149       O    0.5234757941    0.4765242059    0.0853732581         -1.1247
O150       O    0.5853732581    0.5234757941   -0.0234757941         -1.1186
O151       O    0.4765242059    0.5853732581    0.0234757941         -1.1261
O152       O    0.5853732581    0.4765242059    0.0234757941           -1.12
O153       O    0.5234757941    0.5853732581   -0.0234757941         -1.1247
O154       O    0.5234757941    0.5234757941   -0.0853732581         -1.1238
O155       O    0.4765242059    0.4765242059   -0.0853732581         -1.1217
C156       C    0.3979258796    0.5000000000    0.0000000000          0.3962
C157       C    0.5000000000    0.5000000000    0.1020741204          0.4011
C158       C    0.5000000000    0.3979258796    0.0000000000          0.3907
C159       C    0.6020741204    0.5000000000    0.0000000000          0.3945
C160       C    0.5000000000    0.6020741204    0.0000000000          0.4058
C161       C    0.5000000000    0.5000000000   -0.1020741204          0.3963
Zn162     Zn    0.4680569656    0.5319430344    0.4680569656          1.4972
Zn163     Zn    0.4680569656    0.4680569656    0.5319430344          1.4936
Zn164     Zn    0.5319430344    0.4680569656    0.4680569656          1.4911
Zn165     Zn    0.5319430344    0.5319430344    0.5319430344          1.4948
O166       O    0.5000000000    0.5000000000    0.5000000000         -2.2164
O167       O    0.4146267419    0.5234757941    0.4765242059         -1.1227
O168       O    0.4765242059    0.4146267419    0.5234757941         -1.1209
O169       O    0.5234757941    0.4765242059    0.4146267419          -1.116
O170       O    0.4146267419    0.4765242059    0.5234757941         -1.1228
O171       O    0.4765242059    0.5234757941    0.4146267419         -1.1188
O172       O    0.5234757941    0.4146267419    0.4765242059         -1.1247
O173       O    0.5853732581    0.5234757941    0.5234757941         -1.1186
O174       O    0.4765242059    0.4765242059    0.5853732581         -1.1261
O175       O    0.5853732581    0.4765242059    0.4765242059           -1.12
O176       O    0.5234757941    0.5234757941    0.5853732581         -1.1247
O177       O    0.5234757941    0.5853732581    0.5234757941         -1.1238
O178       O    0.4765242059    0.5853732581    0.4765242059         -1.1217
C179       C    0.3979258796    0.5000000000    0.5000000000          0.3962
C180       C    0.5000000000    0.3979258796    0.5000000000          0.4011
C181       C    0.5000000000    0.5000000000    0.3979258796          0.3907
C182       C    0.6020741204    0.5000000000    0.5000000000          0.3945
C183       C    0.5000000000    0.5000000000    0.6020741204          0.4058
C184       C    0.5000000000    0.6020741204    0.5000000000          0.3963
C645       C    0.5000000000    0.5000000000   -0.1459487842         -0.3777
C646       C    0.5328904054    0.4992812635   -0.1659120663          -0.377
C647       C    0.5340504594    0.4995966982   -0.2040834756         -0.3774
C648       C    0.5013403850    0.5001433705   -0.2238110070          -0.378
C649       C    0.4687176526    0.5008329512   -0.2042520326          0.6214
C650       C    0.4672705854    0.5009163536   -0.1660764947          0.6214
N651       N    0.5004404446    0.5002049470   -0.2607085063          0.6219
C652       C    0.5726102678    0.4985369956   -0.2241347437         -0.3765
H653       H    0.5601393934    0.4985510798   -0.1511959079         -0.3763
C654       C    0.4281540797    0.5024280424   -0.1475961640          0.6201
H655       H    0.4421404606    0.5014175274   -0.2203368288          0.6209
H656       H    0.4231662053    0.4771380619   -0.1301482601         -0.3567
H657       H    0.4053991116    0.5037152090   -0.1687763921          0.6188
H658       H    0.4255028071    0.5277945208   -0.1297878688          0.5968
N659       N    0.5129249698    0.5001034495   -0.2950100996         -0.3781
N660       N    0.4815032909    0.5002626446   -0.3230919785          0.6217
N661       N    0.5000000000    0.5000000000   -0.3540512158          0.6219
H662       H    0.5956684275    0.4905800953   -0.2047823936         -0.3691
H663       H    0.5794194010    0.5264901777   -0.2360646794          0.5979
H664       H    0.5728418760    0.4778879887   -0.2474360132         -0.3576
C625       C    0.5000000000    0.5000000000    0.1459487842         -0.3721
C626       C    0.5328904054    0.5007187365    0.1659120663          -0.377
C627       C    0.5340504594    0.5004033018    0.2040834756         -0.3774
C628       C    0.5013403850    0.4998566295    0.2238110070          -0.378
C629       C    0.4687176526    0.4991670488    0.2042520326          0.6214
C630       C    0.4672705854    0.4990836464    0.1660764947          0.6214
N631       N    0.5004404446    0.4997950530    0.2607085063          0.6219
C632       C    0.5726102678    0.5014630044    0.2241347437         -0.3765
H633       H    0.5601393934    0.5014489202    0.1511959079         -0.3763
C634       C    0.4281540797    0.4975719576    0.1475961640          0.6201
H635       H    0.4421404606    0.4985824726    0.2203368288          0.6209
H636       H    0.4231662053    0.5228619381    0.1301482601         -0.3567
H637       H    0.4053991116    0.4962847910    0.1687763921          0.6188
H638       H    0.4255028071    0.4722054792    0.1297878688          0.5968
N639       N    0.5129249698    0.4998965505    0.2950100996         -0.3781
N640       N    0.4815032909    0.4997373554    0.3230919785          0.6217
N641       N    0.5000000000    0.5000000000    0.3540512158          0.6219
H642       H    0.5956684275    0.5094199047    0.2047823936         -0.3691
H643       H    0.5794194010    0.4735098223    0.2360646794          0.5979
H644       H    0.5728418760    0.5221120113    0.2474360132         -0.3576
C605       C    0.5000000000    0.8540512158    0.5000000000         -0.3777
C606       C    0.5036514977    0.8340879337    0.4673050170          -0.377
C607       C    0.5034408624    0.7959165244    0.4661214388         -0.3774
C608       C    0.4999768377    0.7761889930    0.4986521683          -0.378
C609       C    0.4963782706    0.7957479674    0.5310831489          0.6214
C610       C    0.4961660432    0.8339235053    0.5325169965          0.6214
N611       N    0.4998351828    0.7392914937    0.4995430208          0.6219
C612       C    0.5079379873    0.7758652563    0.4278101133         -0.3765
H613       H    0.5068108726    0.8488040921    0.4402299571         -0.3763
C614       C    0.4911690481    0.8524038360    0.5713424554          0.6201
H615       H    0.4934238830    0.7796631712    0.5575020901          0.6209
H616       H    0.5159128995    0.8698517399    0.5785676769         -0.3567
H617       H    0.4878560265    0.8312236079    0.5938917184          0.6188
H618       H    0.4656671730    0.8702121312    0.5717190638          0.5968
N619       N    0.5010505803    0.7049899004    0.4871173827         -0.3781
N620       N    0.4980874818    0.6769080215    0.5183994430          0.6217
N621       N    0.5000000000    0.6459487842    0.5000000000          0.6219
H622       H    0.5179211838    0.7952176064    0.4055541754         -0.3691
H623       H    0.4807041199    0.7639353206    0.4185331983          0.5979
H624       H    0.5285252524    0.7525639868    0.4294224545         -0.3576
C585       C    0.5000000000    1.1459487842    0.5000000000         -0.3777
C586       C    0.4671095946    1.1659120663    0.5007187365          -0.377
C587       C    0.4659495406    1.2040834756    0.5004033018         -0.3774
C588       C    0.4986596150    1.2238110070    0.4998566295          -0.378
C589       C    0.5312823474    1.2042520326    0.4991670488          0.6214
C590       C    0.5327294146    1.1660764947    0.4990836464          0.6214
N591       N    0.4995595554    1.2607085063    0.4997950530          0.6219
C592       C    0.4273897322    1.2241347437    0.5014630044         -0.3765
H593       H    0.4398606066    1.1511959079    0.5014489202         -0.3763
C594       C    0.5718459203    1.1475961640    0.4975719576          0.6201
H595       H    0.5578595394    1.2203368288    0.4985824726          0.6209
H596       H    0.5768337947    1.1301482601    0.5228619381         -0.3567
H597       H    0.5946008884    1.1687763921    0.4962847910          0.6188
H598       H    0.5744971929    1.1297878688    0.4722054792          0.5968
N599       N    0.4870750302    1.2950100996    0.4998965505         -0.3781
N600       N    0.5184967091    1.3230919785    0.4997373554          0.6217
N601       N    0.5000000000    1.3540512158    0.5000000000          0.6219
H602       H    0.4043315725    1.2047823936    0.5094199047         -0.3691
H603       H    0.4205805990    1.2360646794    0.4735098223          0.5979
H604       H    0.4271581240    1.2474360132    0.5221120113         -0.3576
C565       C    0.5000000000    0.6459487842    0.0000000000         -0.3777
C566       C    0.4968667257    0.6659120663   -0.0327487090          -0.377
C567       C    0.4970960780    0.7040834756   -0.0339288031         -0.3774
C568       C    0.5000445040    0.7238110070   -0.0013472959          -0.378
C569       C    0.5031290352    0.7042520326    0.0311366056          0.6214
C570       C    0.5033185292    0.6660764947    0.0325736343          0.6214
N571       N    0.5001720333    0.7607085063   -0.0004543118          0.6219
C572       C    0.4932062242    0.7241347437   -0.0723065418         -0.3765
H573       H    0.4941365139    0.6511959079   -0.0598704062         -0.3763
C574       C    0.5077000485    0.6475961640    0.0714733580          0.6201
H575       H    0.5056646758    0.7203368288    0.0575990202          0.6209
H576       H    0.4828448797    0.6301482601    0.0783058240         -0.3567
H577       H    0.5106555593    0.6687763921    0.0940722591          0.6188
H578       H    0.5331927617    0.6297878688    0.0722537729          0.5968
N579       N    0.4991535636    0.7950100996   -0.0128976390         -0.3781
N580       N    0.5016209005    0.8230919785    0.0184274228          0.6217
N581       N    0.5000000000    0.8540512158    0.0000000000          0.6219
H582       H    0.4835767298    0.7047823936   -0.0947177851         -0.3691
H583       H    0.5205835878    0.7360646794   -0.0811510116          0.5979
H584       H    0.4725960074    0.7474360132   -0.0710204276         -0.3576
C545       C    0.5000000000    1.1459487842    0.0000000000         -0.3777
C546       C    0.5209506215    1.1659120663   -0.0253646764          -0.377
C547       C    0.5219474982    1.2040834756   -0.0260365851         -0.3774
C548       C    0.5009844905    1.2238110070   -0.0009208503          -0.378
C549       C    0.4801867313    1.2042520326    0.0242221686          0.6214
C550       C    0.4793041673    1.1660764947    0.0253719687          0.6214
N551       N    0.5004429664    1.2607085063   -0.0001994378          0.6219
C552       C    0.5463451257    1.2241347437   -0.0559152993         -0.3765
H553       H    0.5382057823    1.1511959079   -0.0464668076         -0.3763
C554       C    0.4548848367    1.1475961640    0.0559674342          0.6201
H555       H    0.4632603935    1.2203368288    0.0447206551          0.6209
H556       H    0.4324829921    1.1301482601    0.0432152042         -0.3567
H557       H    0.4409882055    1.1687763921    0.0740320132          0.6188
H558       H    0.4723522243    1.1297878688    0.0745517782          0.5968
N559       N    0.5085250672    1.2950100996   -0.0097153886         -0.3781
N560       N    0.4881107718    1.3230919785    0.0141719258          0.6217
N561       N    0.5000000000    1.3540512158    0.0000000000          0.6219
H562       H    0.5553915340    1.2047823936   -0.0785681907         -0.3691
H563       H    0.5719529997    1.2360646794   -0.0428011285          0.5979
H564       H    0.5308671171    1.2474360132   -0.0695852070         -0.3576
C525       C    0.5000000000    1.0000000000   -0.1459487842         -0.3777
C526       C    0.4992812635    0.9671095946   -0.1659120663          -0.377
C527       C    0.4995966982    0.9659495406   -0.2040834756         -0.3774
C528       C    0.5001433705    0.9986596150   -0.2238110070          -0.378
C529       C    0.5008329512    1.0312823474   -0.2042520326          0.6214
C530       C    0.5009163536    1.0327294146   -0.1660764947          0.6214
N531       N    0.5002049470    0.9995595554   -0.2607085063          0.6219
C532       C    0.4985369956    0.9273897322   -0.2241347437         -0.3765
H533       H    0.4985510798    0.9398606066   -0.1511959079         -0.3763
C534       C    0.5024280424    1.0718459203   -0.1475961640          0.6201
H535       H    0.5014175274    1.0578595394   -0.2203368288          0.6209
H536       H    0.4771380619    1.0768337947   -0.1301482601         -0.3567
H537       H    0.5037152090    1.0946008884   -0.1687763921          0.6188
H538       H    0.5277945208    1.0744971929   -0.1297878688          0.5968
N539       N    0.5001034495    0.9870750302   -0.2950100996         -0.3781
N540       N    0.5002626446    1.0184967091   -0.3230919785          0.6217
N541       N    0.5000000000    1.0000000000   -0.3540512158          0.6219
H542       H    0.4905800953    0.9043315725   -0.2047823936         -0.3691
H543       H    0.5264901777    0.9205805990   -0.2360646794          0.5979
H544       H    0.4778879887    0.9271581240   -0.2474360132         -0.3576
C505       C    0.5000000000    1.0000000000    0.1459487842         -0.3777
C506       C    0.5007641807    0.9671106190    0.1659120663          -0.377
C507       C    0.5004503491    0.9659501303    0.2040834756         -0.3774
C508       C    0.4998584817    0.9986594182    0.2238110070          -0.378
C509       C    0.4991238266    1.0312811667    0.2042520326          0.6214
C510       C    0.4990384249    1.0327281172    0.1660764947          0.6214
N511       N    0.4997956618    0.9995592727    0.2607085063          0.6219
C512       C    0.5015633290    0.9273918229    0.2241347437         -0.3765
H513       H    0.5015320137    0.9398626660    0.1511959079         -0.3763
C514       C    0.4974726901    1.0718424969    0.1475961640          0.6201
H515       H    0.4985025291    1.0578575255    0.2203368288          0.6209
H516       H    0.5227557547    1.0768653098    0.1301482601         -0.3567
H517       H    0.4961540840    1.0945956648    0.1687763921          0.6188
H518       H    0.4721025726    1.0744587179    0.1297878688          0.5968
N519       N    0.4999144091    0.9870748996    0.2950100996         -0.3781
N520       N    0.4997117987    1.0184963286    0.3230919785          0.6217
N521       N    0.5000000000    1.0000000000    0.3540512158          0.6219
H522       H    0.5095520813    0.9043446794    0.2047823936         -0.3691
H523       H    0.4736195818    0.9205440732    0.2360646794          0.5979
H524       H    0.5222126362    0.9271887458    0.2474360132         -0.3576
C485       C    0.8540512158    0.5000000000    0.5000000000         -0.3777
C486       C    0.8340879337    0.4773037563    0.5238154546          -0.377
C487       C    0.7959165244    0.4762617503    0.5244149942         -0.3774
C488       C    0.7761889930    0.4989526991    0.5008487330          -0.378
C489       C    0.7957479674    0.5214807497    0.4772435403          0.6214
C490       C    0.8339235053    0.5224426130    0.4761592071          0.6214
N491       N    0.7392914937    0.4995440083    0.5001675298          0.6219
C492       C    0.7758652563    0.4498071317    0.5524887355         -0.3765
H493       H    0.8488040921    0.4585958863    0.5436410974         -0.3763
C494       C    0.8524038360    0.5489696975    0.4473720570          0.6201
H495       H    0.7796631712    0.5398178261    0.4579967096          0.6209
H496       H    0.8698517399    0.5704110389    0.4616804772         -0.3567
H497       H    0.8312236079    0.5641121285    0.4303382038          0.6188
H498       H    0.8702121312    0.5328638898    0.4275960507          0.5968
N499       N    0.7049899004    0.4908075694    0.5090865156         -0.3781
N500       N    0.6769080215    0.5128640923    0.4867066799          0.6217
N501       N    0.6459487842    0.5000000000    0.5000000000          0.6219
H502       H    0.7952176064    0.4391774083    0.5744432332         -0.3691
H503       H    0.7639353206    0.4251934905    0.5375919792          0.5979
H504       H    0.7525639868    0.4642769984    0.5672216268         -0.3576
C465       C    1.1459487842    0.5000000000    0.5000000000         -0.3777
C466       C    1.1659120663    0.5238154546    0.4773037563          -0.377
C467       C    1.2040834756    0.5244149942    0.4762617503         -0.3774
C468       C    1.2238110070    0.5008487330    0.4989526991          -0.378
C469       C    1.2042520326    0.4772435403    0.5214807497          0.6214
C470       C    1.1660764947    0.4761592071    0.5224426130          0.6214
N471       N    1.2607085063    0.5001675298    0.4995440083          0.6219
C472       C    1.2241347437    0.5524887355    0.4498071317         -0.3765
H473       H    1.1511959079    0.5436410974    0.4585958863         -0.3763
C474       C    1.1475961640    0.4473720570    0.5489696975          0.6201
H475       H    1.2203368288    0.4579967096    0.5398178261          0.6209
H476       H    1.1301482601    0.4616804772    0.5704110389         -0.3567
H477       H    1.1687763921    0.4303382038    0.5641121285          0.6188
H478       H    1.1297878688    0.4275960507    0.5328638898          0.5968
N479       N    1.2950100996    0.5090865156    0.4908075694         -0.3781
N480       N    1.3230919785    0.4867066799    0.5128640923          0.6217
N481       N    1.3540512158    0.5000000000    0.5000000000          0.6219
H482       H    1.2047823936    0.5744432332    0.4391774083         -0.3691
H483       H    1.2360646794    0.5375919792    0.4251934905          0.5979
H484       H    1.2474360132    0.5672216268    0.4642769984         -0.3576
C445       C    0.8540512158    0.5000000000    0.0000000000         -0.3777
C446       C    0.8340879337    0.4813245567   -0.0270836329          -0.377
C447       C    0.7959165244    0.4809505806   -0.0282261591         -0.3774
C448       C    0.7761889930    0.4993831699   -0.0011986274          -0.378
C449       C    0.7957479674    0.5178871545    0.0256773981          0.6214
C450       C    0.8339235053    0.5187520716    0.0268405308          0.6214
N451       N    0.7392914937    0.4999291781   -0.0004806027          0.6219
C452       C    0.7758652563    0.4588746456   -0.0598589726         -0.3765
H453       H    0.8488040921    0.4657397986   -0.0494477969         -0.3763
C454       C    0.8524038360    0.5415115567    0.0586900529          0.6201
H455       H    0.7796631712    0.5329810770    0.0475603221          0.6209
H456       H    0.8698517399    0.5231238849    0.0767553658         -0.3567
H457       H    0.8312236079    0.5550919570    0.0769935526          0.6188
H458       H    0.8702121312    0.5641612433    0.0469649017          0.5968
N459       N    0.7049899004    0.4929834929   -0.0108551451         -0.3781
N460       N    0.6769080215    0.5103843210    0.0153089224          0.6217
N461       N    0.6459487842    0.5000000000    0.0000000000          0.6219
H462       H    0.7952176064    0.4395553308   -0.0747504153         -0.3691
H463       H    0.7639353206    0.4784864404   -0.0809094402          0.5979
H464       H    0.7525639868    0.4414959473   -0.0487047818         -0.3576
C425       C    1.1459487842    0.5000000000    0.0000000000         -0.3777
C426       C    1.1659120663    0.5245405250   -0.0219102255          -0.377
C427       C    1.2040834756    0.5251736142   -0.0229321954         -0.3774
C428       C    1.2238110070    0.5008823230   -0.0010191629          -0.378
C429       C    1.2042520326    0.4765574152    0.0207297922          0.6214
C430       C    1.1660764947    0.4754423933    0.0216559054          0.6214
N431       N    1.2607085063    0.5001822615   -0.0004503059          0.6219
C432       C    1.2241347437    0.5540923275   -0.0484604115         -0.3765
H433       H    1.1511959079    0.5449637197   -0.0399638576         -0.3763
C434       C    1.1475961640    0.4458082929    0.0472333625          0.6201
H435       H    1.2203368288    0.4567247780    0.0384316386          0.6209
H436       H    1.1301482601    0.4594122874    0.0691284154         -0.3567
H437       H    1.1687763921    0.4282912935    0.0618141754          0.6188
H438       H    1.1297878688    0.4265661901    0.0304933221          0.5968
N439       N    1.2950100996    0.5093804790   -0.0088922528         -0.3781
N440       N    1.3230919785    0.4862956060    0.0124252491          0.6217
N441       N    1.3540512158    0.5000000000    0.0000000000          0.6219
H442       H    1.2047823936    0.5763807041   -0.0583709746         -0.3691
H443       H    1.2360646794    0.5400034108   -0.0735452098          0.5979
H444       H    1.2474360132    0.5683471493   -0.0335193545         -0.3576
C405       C    1.0000000000    0.5000000000   -0.1459487842         -0.3777
C406       C    1.0328904054    0.4992812635   -0.1659120663          -0.377
C407       C    1.0340504594    0.4995966982   -0.2040834756         -0.3774
C408       C    1.0013403850    0.5001433705   -0.2238110070          -0.378
C409       C    0.9687176526    0.5008329512   -0.2042520326          0.6214
C410       C    0.9672705854    0.5009163536   -0.1660764947          0.6214
N411       N    1.0004404446    0.5002049470   -0.2607085063          0.6219
C412       C    1.0726102678    0.4985369956   -0.2241347437         -0.3765
H413       H    1.0601393934    0.4985510798   -0.1511959079         -0.3763
C414       C    0.9281540797    0.5024280424   -0.1475961640          0.6201
H415       H    0.9421404606    0.5014175274   -0.2203368288          0.6209
H416       H    0.9231662053    0.4771380619   -0.1301482601         -0.3567
H417       H    0.9053991116    0.5037152090   -0.1687763921          0.6188
H418       H    0.9255028071    0.5277945208   -0.1297878688          0.5968
N419       N    1.0129249698    0.5001034495   -0.2950100996         -0.3781
N420       N    0.9815032909    0.5002626446   -0.3230919785          0.6217
N421       N    1.0000000000    0.5000000000   -0.3540512158          0.6219
H422       H    1.0956684275    0.4905800953   -0.2047823936         -0.3691
H423       H    1.0794194010    0.5264901777   -0.2360646794          0.5979
H424       H    1.0728418760    0.4778879887   -0.2474360132         -0.3576
C385       C    1.0000000000    0.5000000000    0.1459487842         -0.3777
C386       C    0.9671095946    0.4992812635    0.1659120663          -0.377
C387       C    0.9659495406    0.4995966982    0.2040834756         -0.3774
C388       C    0.9986596150    0.5001433705    0.2238110070          -0.378
C389       C    1.0312823474    0.5008329512    0.2042520326          0.6214
C390       C    1.0327294146    0.5009163536    0.1660764947          0.6214
N391       N    0.9995595554    0.5002049470    0.2607085063          0.6219
C392       C    0.9273897322    0.4985369956    0.2241347437         -0.3765
H393       H    0.9398606066    0.4985510798    0.1511959079         -0.3763
C394       C    1.0718459203    0.5024280424    0.1475961640          0.6201
H395       H    1.0578595394    0.5014175274    0.2203368288          0.6209
H396       H    1.0768337947    0.4771380619    0.1301482601         -0.3567
H397       H    1.0946008884    0.5037152090    0.1687763921          0.6188
H398       H    1.0744971929    0.5277945208    0.1297878688          0.5968
N399       N    0.9870750302    0.5001034495    0.2950100996         -0.3781
N400       N    1.0184967091    0.5002626446    0.3230919785          0.6217
N401       N    1.0000000000    0.5000000000    0.3540512158          0.6219
H402       H    0.9043315725    0.4905800953    0.2047823936         -0.3691
H403       H    0.9205805990    0.5264901777    0.2360646794          0.5979
H404       H    0.9271581240    0.4778879887    0.2474360132         -0.3576
C365       C    1.0000000000   -0.1459487842    0.5000000000         -0.3777
C366       C    1.0328904054   -0.1659120663    0.5007187365          -0.377
C367       C    1.0340504594   -0.2040834756    0.5004033018         -0.3774
C368       C    1.0013403850   -0.2238110070    0.4998566295          -0.378
C369       C    0.9687176526   -0.2042520326    0.4991670488          0.6214
C370       C    0.9672705854   -0.1660764947    0.4990836464          0.6214
N371       N    1.0004404446   -0.2607085063    0.4997950530          0.6219
C372       C    1.0726102678   -0.2241347437    0.5014630044         -0.3765
H373       H    1.0601393934   -0.1511959079    0.5014489202         -0.3763
C374       C    0.9281540797   -0.1475961640    0.4975719576          0.6201
H375       H    0.9421404606   -0.2203368288    0.4985824726          0.6209
H376       H    0.9231662053   -0.1301482601    0.5228619381         -0.3567
H377       H    0.9053991116   -0.1687763921    0.4962847910          0.6188
H378       H    0.9255028071   -0.1297878688    0.4722054792          0.5968
N379       N    1.0129249698   -0.2950100996    0.4998965505         -0.3781
N380       N    0.9815032909   -0.3230919785    0.4997373554          0.6217
N381       N    1.0000000000   -0.3540512158    0.5000000000          0.6219
H382       H    1.0956684275   -0.2047823936    0.5094199047         -0.3691
H383       H    1.0794194010   -0.2360646794    0.4735098223          0.5979
H384       H    1.0728418760   -0.2474360132    0.5221120113         -0.3576
C345       C    1.0000000000    0.1459487842    0.5000000000         -0.3777
C346       C    0.9671095946    0.1659120663    0.5007187365          -0.377
C347       C    0.9659495406    0.2040834756    0.5004033018         -0.3774
C348       C    0.9986596150    0.2238110070    0.4998566295          -0.378
C349       C    1.0312823474    0.2042520326    0.4991670488          0.6214
C350       C    1.0327294146    0.1660764947    0.4990836464          0.6214
N351       N    0.9995595554    0.2607085063    0.4997950530          0.6219
C352       C    0.9273897322    0.2241347437    0.5014630044         -0.3765
H353       H    0.9398606066    0.1511959079    0.5014489202         -0.3763
C354       C    1.0718459203    0.1475961640    0.4975719576          0.6201
H355       H    1.0578595394    0.2203368288    0.4985824726          0.6209
H356       H    1.0768337947    0.1301482601    0.5228619381         -0.3567
H357       H    1.0946008884    0.1687763921    0.4962847910          0.6188
H358       H    1.0744971929    0.1297878688    0.4722054792          0.5968
N359       N    0.9870750302    0.2950100996    0.4998965505         -0.3781
N360       N    1.0184967091    0.3230919785    0.4997373554          0.6217
N361       N    1.0000000000    0.3540512158    0.5000000000          0.6219
H362       H    0.9043315725    0.2047823936    0.5094199047         -0.3691
H363       H    0.9205805990    0.2360646794    0.4735098223          0.5979
H364       H    0.9271581240    0.2474360132    0.5221120113         -0.3576
C325       C    0.6459487842   -0.0000000000    0.5000000000         -0.3777
C326       C    0.6659120663    0.0234797781    0.5230433368          -0.377
C327       C    0.7040834756    0.0245412461    0.5236077039         -0.3774
C328       C    0.7238110070    0.0010750912    0.5008132441          -0.378
C329       C    0.7042520326   -0.0222295583    0.4779744283          0.6214
C330       C    0.6660764947   -0.0232271364    0.4769228594          0.6214
N331       N    0.7607085063    0.0004613379    0.5001521910          0.6219
C332       C    0.7241347437    0.0519196654    0.5507812931         -0.3765
H333       H    0.6511959079    0.0428400208    0.5422324358         -0.3763
C334       C    0.6475961640   -0.0507018325    0.4490386830          0.6201
H335       H    0.7203368288   -0.0411998631    0.4593514212          0.6209
H336       H    0.6301482601   -0.0716528137    0.4640559529         -0.3567
H337       H    0.6687763921   -0.0664052915    0.4325206096          0.6188
H338       H    0.6297878688   -0.0352662002    0.4287352664          0.5968
N339       N    0.7950100996    0.0094910814    0.5087741051         -0.3781
N340       N    0.8230919785   -0.0133013366    0.4871441968          0.6217
N341       N    0.8540512158   -0.0000000000    0.5000000000          0.6219
H342       H    0.7047823936    0.0632774515    0.5723681336         -0.3691
H343       H    0.7360646794    0.0760215031    0.5350699563          0.5979
H344       H    0.7474360132    0.0379504530    0.5659897194         -0.3576
C305       C    1.3540512158   -0.0000000000    0.5000000000         -0.3777
C306       C    1.3340879337   -0.0325522062    0.5047591200          -0.377
C307       C    1.2959165244   -0.0337422517    0.5045887788         -0.3774
C308       C    1.2761889930   -0.0013478413    0.5000225988          -0.378
C309       C    1.2957479674    0.0309423112    0.4953253397          0.6214
C310       C    1.3339235053    0.0323681292    0.4950645672          0.6214
N311       N    1.2392914937   -0.0004623101    0.4998507885          0.6219
C312       C    1.2758652563   -0.0718788622    0.5103836675         -0.3765
H313       H    1.3488040921   -0.0595044308    0.5088356506         -0.3763
C314       C    1.3524038360    0.0710016104    0.4887526458          0.6201
H315       H    1.2796631712    0.0572457529    0.4914759481          0.6209
H316       H    1.3698517399    0.0790625194    0.5132370031         -0.3567
H317       H    1.3312236079    0.0934254308    0.4846761707          0.6188
H318       H    1.3702121312    0.0705124225    0.4632526817          0.5968
N319       N    1.2049899004   -0.0128395359    0.5014872340         -0.3781
N320       N    1.1769080215    0.0183239272    0.4974640737          0.6217
N321       N    1.1459487842   -0.0000000000    0.5000000000          0.6219
H322       H    1.2952176064   -0.0937831290    0.5211165182         -0.3691
H323       H    1.2639353206   -0.0820747982    0.4834803671          0.5979
H324       H    1.2525639868   -0.0695686814    0.5309043447         -0.3576
C285       C    0.0000000000   -0.3540512158    0.0000000000         -0.3777
C286       C   -0.0031955825   -0.3340879337    0.0327426878          -0.377
C287       C   -0.0036466608   -0.2959165244    0.0338570274         -0.3774
C288       C   -0.0003016671   -0.2761889930    0.0013138432          -0.378
C289       C    0.0028910501   -0.2957479674   -0.0311596036          0.6214
C290       C    0.0029802316   -0.3339235053   -0.0326063262          0.6214
N291       N   -0.0002558437   -0.2392914937    0.0004129633          0.6219
C292       C   -0.0071775371   -0.2758652563    0.0722694565         -0.3765
H293       H   -0.0057092824   -0.3488040921    0.0598853079         -0.3763
C294       C    0.0061284925   -0.3524038360   -0.0716252276          0.6201
H295       H    0.0054694781   -0.2796631712   -0.0576178834          0.6209
H296       H    0.0318320440   -0.3698517399   -0.0735718778         -0.3567
H297       H    0.0075550160   -0.3312236079   -0.0943718846          0.6188
H298       H   -0.0187430556   -0.3702121312   -0.0772726666          0.5968
N299       N   -0.0016389273   -0.2049899004    0.0128210555         -0.3781
N300       N    0.0019376633   -0.1769080215   -0.0183968120          0.6217
N301       N   -0.0000000000   -0.1459487842    0.0000000000          0.6219
H302       H   -0.0020176416   -0.2952176064    0.0961098941         -0.3691
H303       H   -0.0357418797   -0.2639353206    0.0757079177          0.5979
H304       H    0.0132975711   -0.2525639868    0.0749536827         -0.3576
C265       C    0.0000000000    0.3540512158    0.0000000000         -0.3777
C266       C   -0.0328516424    0.3340879337   -0.0017506972          -0.377
C267       C   -0.0340210253    0.2959165244   -0.0014718279         -0.3774
C268       C   -0.0013442245    0.2761889930    0.0001012299          -0.378
C269       C    0.0312407919    0.2957479674    0.0018143843          0.6214
C270       C    0.0326845284    0.3339235053    0.0019431640          0.6214
N271       N   -0.0004466602    0.2392914937    0.0001910220          0.6219
C272       C   -0.0725285758    0.2758652563   -0.0037412660         -0.3765
H273       H   -0.0600642876    0.3488040921   -0.0033357716         -0.3763
C274       C    0.0717343157    0.3524038360    0.0046818384          0.6201
H275       H    0.0577865420    0.2796631712    0.0032328376          0.6209
H276       H    0.0775134967    0.3698517399   -0.0204391304         -0.3567
H277       H    0.0944376733    0.3312236079    0.0066825697          0.6188
H278       H    0.0735881170    0.3702121312    0.0301190334          0.5968
N279       N   -0.0129218489    0.2049899004   -0.0003022711         -0.3781
N280       N    0.0184793527    0.1769080215    0.0008430622          0.6217
N281       N    0.0000000000    0.1459487842    0.0000000000          0.6219
H282       H   -0.0953256359    0.2952176064   -0.0124179611         -0.3691
H283       H   -0.0802117068    0.2639353206    0.0239844293          0.5979
H284       H   -0.0721119698    0.2525639868   -0.0243873690         -0.3576
C245       C   -0.1459487842   -0.0000000000    0.0000000000         -0.3777
C246       C   -0.1659120663   -0.0305537123    0.0121969674          -0.377
C247       C   -0.2040834756   -0.0317507511    0.0123079749         -0.3774
C248       C   -0.2238110070   -0.0013056527    0.0003353474          -0.378
C249       C   -0.2042520326    0.0290075692   -0.0117405279          0.6214
C250       C   -0.1660764947    0.0303336875   -0.0123256516          0.6214
N251       N   -0.2607085063   -0.0004843327   -0.0000376374          0.6219
C252       C   -0.2241347437   -0.0674950280    0.0268106803         -0.3765
H253       H   -0.1511959079   -0.0558195969    0.0224280765         -0.3763
C254       C   -0.1475961640    0.0664410114   -0.0274467421          0.6201
H255       H   -0.2203368288    0.0536952582   -0.0215998827          0.6209
H256       H   -0.1301482601    0.0799735470   -0.0055074511         -0.3567
H257       H   -0.1687763921    0.0873025950   -0.0366249610          0.6188
H258       H   -0.1297878688    0.0600365872   -0.0521342050          0.5968
N259       N   -0.2950100996   -0.0121419223    0.0044316215         -0.3781
N260       N   -0.3230919785    0.0172322099   -0.0067266762          0.6217
N261       N   -0.3540512158   -0.0000000000    0.0000000000          0.6219
H262       H   -0.2047823936   -0.0863037139    0.0423420783         -0.3691
H263       H   -0.2360646794   -0.0836664797    0.0030151171          0.5979
H264       H   -0.2474360132   -0.0604771755    0.0462319283         -0.3576
C225       C    0.3540512158   -0.0000000000    0.0000000000         -0.3777
C226       C    0.3340879337   -0.0324475353   -0.0054270435          -0.377
C227       C    0.2959165244   -0.0335284220   -0.0059532644         -0.3774
C228       C    0.2761889930   -0.0012901400   -0.0003908014          -0.378
C229       C    0.2957479674    0.0308889805    0.0050149728          0.6214
C230       C    0.3339235053    0.0323262185    0.0052028722          0.6214
N231       N    0.2392914937   -0.0003945021   -0.0002834833          0.6219
C232       C    0.2758652563   -0.0716095005   -0.0121025130         -0.3765
H233       H    0.3488040921   -0.0593547378   -0.0097908686         -0.3763
C234       C    0.3524038360    0.0710385131    0.0110118716          0.6201
H235       H    0.2796631712    0.0571090183    0.0093965794          0.6209
H236       H    0.3698517399    0.0712230013    0.0367883719         -0.3567
H237       H    0.3312236079    0.0936343828    0.0139904695          0.6188
H238       H    0.3702121312    0.0783734466   -0.0134152900          0.5968
N239       N    0.2049899004   -0.0126789763   -0.0025117932         -0.3781
N240       N    0.1769080215    0.0182212545    0.0031910995          0.6217
N241       N    0.1459487842   -0.0000000000    0.0000000000          0.6219
H242       H    0.2952176064   -0.0957469691   -0.0085849010         -0.3691
H243       H    0.2639353206   -0.0730866874   -0.0408351183          0.5979
H244       H    0.2525639868   -0.0756875291    0.0081411232         -0.3576
C205       C    0.0000000000    0.0000000000   -0.1459487842         -0.3777
C206       C    0.0005889098    0.0328929861   -0.1659120663          -0.377
C207       C    0.0002688987    0.0340517861   -0.2040834756         -0.3774
C208       C   -0.0001486600    0.0013398086   -0.2238110070          -0.378
C209       C   -0.0007094707   -0.0312853915   -0.2042520326          0.6214
C210       C   -0.0007871608   -0.0327327766   -0.1660764947          0.6214
N211       N   -0.0002066839    0.0004396322   -0.2607085063          0.6219
C212       C    0.0011763944    0.0726154768   -0.2241347437         -0.3765
H213       H    0.0012115338    0.0601446440   -0.1511959079         -0.3763
C214       C   -0.0021444418   -0.0718549443   -0.1475961640          0.6201
H215       H   -0.0011891401   -0.0578646838   -0.2203368288          0.6209
H216       H    0.0231650293   -0.0767429583   -0.1301482601         -0.3567
H217       H   -0.0033417827   -0.0946148158   -0.1687763921          0.6188
H218       H   -0.0275002578   -0.0746063198   -0.1297878688          0.5968
N219       N   -0.0001544646    0.0129244608   -0.2950100996         -0.3781
N220       N   -0.0001896345   -0.0184976017   -0.3230919785          0.6217
N221       N    0.0000000000    0.0000000000   -0.3540512158          0.6219
H222       H    0.0090422203    0.0957048634   -0.2047823936         -0.3691
H223       H   -0.0268034462    0.0793142234   -0.2360646794          0.5979
H224       H    0.0218243262    0.0729285865   -0.2474360132         -0.3576
C185       C   -0.0000000000   -0.0000000000    0.1459487842         -0.3777
C186       C    0.0243201291    0.0221546083    0.1659120663          -0.377
C187       C    0.0254018424    0.0226791279    0.2040834756         -0.3774
C188       C    0.0011045784    0.0007727182    0.2238110070          -0.378
C189       C   -0.0230329405   -0.0211840204    0.2042520326          0.6214
C190       C   -0.0240689186   -0.0221977801    0.1660764947          0.6214
N191       N    0.0004666763    0.0001349367    0.2607085063          0.6219
C192       C    0.0537714501    0.0488162118    0.2241347437         -0.3765
H193       H    0.0443802983    0.0406107761    0.1511959079         -0.3763
C194       C   -0.0525611509   -0.0490413812    0.1475961640          0.6201
H195       H   -0.0426823983   -0.0390889826    0.2203368288          0.6209
H196       H   -0.0729394224   -0.0332556896    0.1301482601         -0.3567
H197       H   -0.0688677749   -0.0649643013    0.1687763921          0.6188
H198       H   -0.0378909157   -0.0699045466    0.1297878688          0.5968
N199       N    0.0098106773    0.0084152337    0.2950100996         -0.3781
N200       N   -0.0137700261   -0.0123524739    0.3230919785          0.6217
N201       N   -0.0000000000    0.0000000000    0.3540512158          0.6219
H202       H    0.0659238236    0.0699659354    0.2047823936         -0.3691
H203       H    0.0772726003    0.0322198078    0.2360646794          0.5979
H204       H    0.0403772278    0.0645333977    0.2474360132         -0.3576
loop_
_geom_bond_atom_site_label_1
_geom_bond_atom_site_label_2
_geom_bond_distance
_geom_bond_site_symmetry_2
_ccdc_geom_bond_type
Zn1          O5 1.942       .   S
Zn1          O6 1.922       .   S
Zn1         O10 1.922       .   S
Zn1         O17 1.922       .   S
Zn2          O5 1.942       .   S
Zn2          O7 1.922       .   S
Zn2          O9 1.922       .   S
Zn2         O13 1.922       .   S
Zn3          O5 1.942       .   S
Zn3          O8 1.922       .   S
Zn3         O11 1.922       .   S
Zn3         O14 1.922       .   S
Zn4          O5 1.942       .   S
Zn4         O12 1.922       .   S
Zn4         O15 1.922       .   S
Zn4         O16 1.922       .   S
O6          C18 1.304       .   A
O7          C19 1.304       .   A
O8          C20 1.304       .   A
O9          C18 1.304       .   A
O10         C20 1.304       .   A
O11         C19 1.304       .   A
O12         C21 1.304       .   A
O13         C22 1.304       .   A
O14         C21 1.304       .   A
O15         C22 1.304       .   A
O16         C23 1.304       .   A
O17         C23 1.304       .   A
C18        C185 1.540       .   S
C19        N241 1.540       .   S
C20        N301 1.540       .   S
C21        C205 1.540       .   S
C22        N281 1.540       .   S
C23        C245 1.540       .   S
Zn24        O28 1.942       .   S
Zn24        O29 1.922       .   S
Zn24        O33 1.922       .   S
Zn24        O40 1.922       .   S
Zn25        O28 1.942       .   S
Zn25        O30 1.922       .   S
Zn25        O32 1.922       .   S
Zn25        O36 1.922       .   S
Zn26        O28 1.942       .   S
Zn26        O31 1.922       .   S
Zn26        O34 1.922       .   S
Zn26        O37 1.922       .   S
Zn27        O28 1.942       .   S
Zn27        O35 1.922       .   S
Zn27        O38 1.922       .   S
Zn27        O39 1.922       .   S
O29         C41 1.304       .   A
O30         C42 1.304       .   A
O31         C43 1.304       .   A
O32         C41 1.304       .   A
O33         C43 1.304       .   A
O34         C42 1.304       .   A
O35         C44 1.304       .   A
O36         C45 1.304       .   A
O37         C44 1.304       .   A
O38         C45 1.304       .   A
O39         C46 1.304       .   A
O40         C46 1.304       .   A
C41        N201 1.540   1_655   S
C42        N321 1.540       .   S
C43        C345 1.540       .   S
C44        N221 1.540   1_656   S
C45        C365 1.540       .   S
C46        N341 1.540       .   S
Zn47        O51 1.942       .   S
Zn47        O52 1.922       .   S
Zn47        O56 1.922       .   S
Zn47        O63 1.922       .   S
Zn48        O51 1.942       .   S
Zn48        O53 1.922       .   S
Zn48        O55 1.922       .   S
Zn48        O59 1.922       .   S
Zn49        O51 1.942       .   S
Zn49        O54 1.922       .   S
Zn49        O57 1.922       .   S
Zn49        O60 1.922       .   S
Zn50        O51 1.942       .   S
Zn50        O58 1.922       .   S
Zn50        O61 1.922       .   S
Zn50        O62 1.922       .   S
O52         C64 1.304       .   A
O53         C65 1.304       .   A
O54         C66 1.304       .   A
O55         C64 1.304       .   A
O56         C66 1.304       .   A
O57         C65 1.304       .   A
O58         C67 1.304       .   A
O59         C68 1.304       .   A
O60         C67 1.304       .   A
O61         C68 1.304       .   A
O62         C69 1.304       .   A
O63         C69 1.304       .   A
C64        C265 1.540   1_655   S
C65        C385 1.540       .   S
C66        C425 1.540       .   S
C67        C285 1.540   1_665   S
C68        C445 1.540       .   S
C69        C405 1.540       .   S
Zn70        O74 1.942       .   S
Zn70        O75 1.922       .   S
Zn70        O79 1.922       .   S
Zn70        O86 1.922       .   S
Zn71        O74 1.942       .   S
Zn71        O76 1.922       .   S
Zn71        O78 1.922       .   S
Zn71        O82 1.922       .   S
Zn72        O74 1.942       .   S
Zn72        O77 1.922       .   S
Zn72        O80 1.922       .   S
Zn72        O83 1.922       .   S
Zn73        O74 1.942       .   S
Zn73        O81 1.922       .   S
Zn73        O84 1.922       .   S
Zn73        O85 1.922       .   S
O75         C87 1.304       .   A
O76         C88 1.304       .   A
O77         C89 1.304       .   A
O78         C87 1.304       .   A
O79         C89 1.304       .   A
O80         C88 1.304       .   A
O81         C90 1.304       .   A
O82         C91 1.304       .   A
O83         C90 1.304       .   A
O84         C91 1.304       .   A
O85         C92 1.304       .   A
O86         C92 1.304       .   A
C87        N361 1.540       .   S
C88        N401 1.540       .   S
C89        C485 1.540       .   S
C90        N381 1.540   1_565   S
C91        C465 1.540       .   S
C92        N421 1.540   1_556   S
Zn93        O97 1.942       .   S
Zn93        O98 1.922       .   S
Zn93       O102 1.922       .   S
Zn93       O109 1.922       .   S
Zn94        O97 1.942       .   S
Zn94        O99 1.922       .   S
Zn94       O101 1.922       .   S
Zn94       O105 1.922       .   S
Zn95        O97 1.942       .   S
Zn95       O100 1.922       .   S
Zn95       O103 1.922       .   S
Zn95       O106 1.922       .   S
Zn96        O97 1.942       .   S
Zn96       O104 1.922       .   S
Zn96       O107 1.922       .   S
Zn96       O108 1.922       .   S
O98        C110 1.304       .   A
O99        C111 1.304       .   A
O100       C112 1.304       .   A
O101       C110 1.304       .   A
O102       C112 1.304       .   A
O103       C111 1.304       .   A
O104       C113 1.304       .   A
O105       C114 1.304       .   A
O106       C113 1.304       .   A
O107       C114 1.304       .   A
O108       C115 1.304       .   A
O109       C115 1.304       .   A
C110       C225 1.540   1_565   S
C111       C505 1.540       .   S
C112       N581 1.540       .   S
C113       N261 1.540   1_665   S
C114       C545 1.540       .   S
C115       C525 1.540       .   S
Zn116      O120 1.942       .   S
Zn116      O121 1.922       .   S
Zn116      O125 1.922       .   S
Zn116      O132 1.922       .   S
Zn117      O120 1.942       .   S
Zn117      O122 1.922       .   S
Zn117      O124 1.922       .   S
Zn117      O128 1.922       .   S
Zn118      O120 1.942       .   S
Zn118      O123 1.922       .   S
Zn118      O126 1.922       .   S
Zn118      O129 1.922       .   S
Zn119      O120 1.942       .   S
Zn119      O127 1.922       .   S
Zn119      O130 1.922       .   S
Zn119      O131 1.922       .   S
O121       C133 1.304       .   A
O122       C134 1.304       .   A
O123       C135 1.304       .   A
O124       C133 1.304       .   A
O125       C135 1.304       .   A
O126       C134 1.304       .   A
O127       C136 1.304       .   A
O128       C137 1.304       .   A
O129       C136 1.304       .   A
O130       C137 1.304       .   A
O131       C138 1.304       .   A
O132       C138 1.304       .   A
C133       C305 1.540   1_465   S
C134       N521 1.540       .   S
C135       C585 1.540       .   S
C136       C325 1.540   1_565   S
C137       C605 1.540       .   S
C138       N541 1.540   1_556   S
Zn139      O143 1.942       .   S
Zn139      O144 1.922       .   S
Zn139      O148 1.922       .   S
Zn139      O155 1.922       .   S
Zn140      O143 1.942       .   S
Zn140      O145 1.922       .   S
Zn140      O147 1.922       .   S
Zn140      O151 1.922       .   S
Zn141      O143 1.942       .   S
Zn141      O146 1.922       .   S
Zn141      O149 1.922       .   S
Zn141      O152 1.922       .   S
Zn142      O143 1.942       .   S
Zn142      O150 1.922       .   S
Zn142      O153 1.922       .   S
Zn142      O154 1.922       .   S
O144       C156 1.304       .   A
O145       C157 1.304       .   A
O146       C158 1.304       .   A
O147       C156 1.304       .   A
O148       C158 1.304       .   A
O149       C157 1.304       .   A
O150       C159 1.304       .   A
O151       C160 1.304       .   A
O152       C159 1.304       .   A
O153       C160 1.304       .   A
O154       C161 1.304       .   A
O155       C161 1.304       .   A
C156       N441 1.540   1_455   S
C157       C625 1.540       .   S
C158       N561 1.540   1_545   S
C159       N461 1.540       .   S
C160       C565 1.540       .   S
C161       C645 1.540       .   S
Zn162      O166 1.942       .   S
Zn162      O167 1.922       .   S
Zn162      O171 1.922       .   S
Zn162      O178 1.922       .   S
Zn163      O166 1.942       .   S
Zn163      O168 1.922       .   S
Zn163      O170 1.922       .   S
Zn163      O174 1.922       .   S
Zn164      O166 1.942       .   S
Zn164      O169 1.922       .   S
Zn164      O172 1.922       .   S
Zn164      O175 1.922       .   S
Zn165      O166 1.942       .   S
Zn165      O173 1.922       .   S
Zn165      O176 1.922       .   S
Zn165      O177 1.922       .   S
O167       C179 1.304       .   A
O168       C180 1.304       .   A
O169       C181 1.304       .   A
O170       C179 1.304       .   A
O171       C181 1.304       .   A
O172       C180 1.304       .   A
O173       C182 1.304       .   A
O174       C183 1.304       .   A
O175       C182 1.304       .   A
O176       C183 1.304       .   A
O177       C184 1.304       .   A
O178       C184 1.304       .   A
C179       N481 1.540   1_455   S
C180       N601 1.540   1_545   S
C181       N641 1.540       .   S
C182       N501 1.540       .   S
C183       N661 1.540   1_556   S
C184       N621 1.540       .   S
C645       C646 0.035       .   A
C645       C650 0.035       .   A
C646       C647 0.035       .   A
C646       H653 0.028       .   A
C647       C648 0.035       .   A
C647       C652 0.040       .   A
C648       C649 0.035       .   A
C648       N651 0.034       .   A
C649       C650 0.035       .   A
C649       H655 0.029       .   A
C650       C654 0.040       .   A
N651       N659 0.033       .   A
C652       H662 0.029       .   A
C652       H663 0.029       .   A
C652       H664 0.029       .   A
C654       H656 0.029       .   A
C654       H657 0.029       .   A
C654       H658 0.029       .   A
N659       N660 0.039       .   A
N660       N661 0.033       .   A
C625       C626 0.035       .   A
C625       C630 0.035       .   A
C626       C627 0.035       .   A
C626       H633 0.028       .   A
C627       C628 0.035       .   A
C627       C632 0.040       .   A
C628       C629 0.035       .   A
C628       N631 0.034       .   A
C629       C630 0.035       .   A
C629       H635 0.029       .   A
C630       C634 0.040       .   A
N631       N639 0.033       .   A
C632       H642 0.029       .   A
C632       H643 0.029       .   A
C632       H644 0.029       .   A
C634       H636 0.029       .   A
C634       H637 0.029       .   A
C634       H638 0.029       .   A
N639       N640 0.039       .   A
N640       N641 0.033       .   A
C605       C606 0.035       .   A
C605       C610 0.035       .   A
C606       C607 0.035       .   A
C606       H613 0.028       .   A
C607       C608 0.035       .   A
C607       C612 0.040       .   A
C608       C609 0.035       .   A
C608       N611 0.034       .   A
C609       C610 0.035       .   A
C609       H615 0.029       .   A
C610       C614 0.040       .   A
N611       N619 0.033       .   A
C612       H622 0.029       .   A
C612       H623 0.029       .   A
C612       H624 0.029       .   A
C614       H616 0.029       .   A
C614       H617 0.029       .   A
C614       H618 0.029       .   A
N619       N620 0.039       .   A
N620       N621 0.033       .   A
C585       C586 0.035       .   A
C585       C590 0.035       .   A
C586       C587 0.035       .   A
C586       H593 0.028       .   A
C587       C588 0.035       .   A
C587       C592 0.040       .   A
C588       C589 0.035       .   A
C588       N591 0.034       .   A
C589       C590 0.035       .   A
C589       H595 0.029       .   A
C590       C594 0.040       .   A
N591       N599 0.033       .   A
C592       H602 0.029       .   A
C592       H603 0.029       .   A
C592       H604 0.029       .   A
C594       H596 0.029       .   A
C594       H597 0.029       .   A
C594       H598 0.029       .   A
N599       N600 0.039       .   A
N600       N601 0.033       .   A
C565       C566 0.035       .   A
C565       C570 0.035       .   A
C566       C567 0.035       .   A
C566       H573 0.028       .   A
C567       C568 0.035       .   A
C567       C572 0.040       .   A
C568       C569 0.035       .   A
C568       N571 0.034       .   A
C569       C570 0.035       .   A
C569       H575 0.029       .   A
C570       C574 0.040       .   A
N571       N579 0.033       .   A
C572       H582 0.029       .   A
C572       H583 0.029       .   A
C572       H584 0.029       .   A
C574       H576 0.029       .   A
C574       H577 0.029       .   A
C574       H578 0.029       .   A
N579       N580 0.039       .   A
N580       N581 0.033       .   A
C545       C546 0.035       .   A
C545       C550 0.035       .   A
C546       C547 0.035       .   A
C546       H553 0.028       .   A
C547       C548 0.035       .   A
C547       C552 0.040       .   A
C548       C549 0.035       .   A
C548       N551 0.034       .   A
C549       C550 0.035       .   A
C549       H555 0.029       .   A
C550       C554 0.040       .   A
N551       N559 0.033       .   A
C552       H562 0.029       .   A
C552       H563 0.029       .   A
C552       H564 0.029       .   A
C554       H556 0.029       .   A
C554       H557 0.029       .   A
C554       H558 0.029       .   A
N559       N560 0.039       .   A
N560       N561 0.033       .   A
C525       C526 0.035       .   A
C525       C530 0.035       .   A
C526       C527 0.035       .   A
C526       H533 0.028       .   A
C527       C528 0.035       .   A
C527       C532 0.040       .   A
C528       C529 0.035       .   A
C528       N531 0.034       .   A
C529       C530 0.035       .   A
C529       H535 0.029       .   A
C530       C534 0.040       .   A
N531       N539 0.033       .   A
C532       H542 0.029       .   A
C532       H543 0.029       .   A
C532       H544 0.029       .   A
C534       H536 0.029       .   A
C534       H537 0.029       .   A
C534       H538 0.029       .   A
N539       N540 0.039       .   A
N540       N541 0.033       .   A
C505       C506 0.035       .   A
C505       C510 0.035       .   A
C506       C507 0.035       .   A
C506       H513 0.028       .   A
C507       C508 0.035       .   A
C507       C512 0.040       .   A
C508       C509 0.035       .   A
C508       N511 0.034       .   A
C509       C510 0.035       .   A
C509       H515 0.029       .   A
C510       C514 0.040       .   A
N511       N519 0.033       .   A
C512       H522 0.029       .   A
C512       H523 0.029       .   A
C512       H524 0.029       .   A
C514       H516 0.029       .   A
C514       H517 0.029       .   A
C514       H518 0.029       .   A
N519       N520 0.039       .   A
N520       N521 0.033       .   A
C485       C486 0.035       .   A
C485       C490 0.035       .   A
C486       C487 0.035       .   A
C486       H493 0.028       .   A
C487       C488 0.035       .   A
C487       C492 0.040       .   A
C488       C489 0.035       .   A
C488       N491 0.034       .   A
C489       C490 0.035       .   A
C489       H495 0.029       .   A
C490       C494 0.040       .   A
N491       N499 0.033       .   A
C492       H502 0.029       .   A
C492       H503 0.029       .   A
C492       H504 0.029       .   A
C494       H496 0.029       .   A
C494       H497 0.029       .   A
C494       H498 0.029       .   A
N499       N500 0.039       .   A
N500       N501 0.033       .   A
C465       C466 0.035       .   A
C465       C470 0.035       .   A
C466       C467 0.035       .   A
C466       H473 0.028       .   A
C467       C468 0.035       .   A
C467       C472 0.040       .   A
C468       C469 0.035       .   A
C468       N471 0.034       .   A
C469       C470 0.035       .   A
C469       H475 0.029       .   A
C470       C474 0.040       .   A
N471       N479 0.033       .   A
C472       H482 0.029       .   A
C472       H483 0.029       .   A
C472       H484 0.029       .   A
C474       H476 0.029       .   A
C474       H477 0.029       .   A
C474       H478 0.029       .   A
N479       N480 0.039       .   A
N480       N481 0.033       .   A
C445       C446 0.035       .   A
C445       C450 0.035       .   A
C446       C447 0.035       .   A
C446       H453 0.028       .   A
C447       C448 0.035       .   A
C447       C452 0.040       .   A
C448       C449 0.035       .   A
C448       N451 0.034       .   A
C449       C450 0.035       .   A
C449       H455 0.029       .   A
C450       C454 0.040       .   A
N451       N459 0.033       .   A
C452       H462 0.029       .   A
C452       H463 0.029       .   A
C452       H464 0.029       .   A
C454       H456 0.029       .   A
C454       H457 0.029       .   A
C454       H458 0.029       .   A
N459       N460 0.039       .   A
N460       N461 0.033       .   A
C425       C426 0.035       .   A
C425       C430 0.035       .   A
C426       C427 0.035       .   A
C426       H433 0.028       .   A
C427       C428 0.035       .   A
C427       C432 0.040       .   A
C428       C429 0.035       .   A
C428       N431 0.034       .   A
C429       C430 0.035       .   A
C429       H435 0.029       .   A
C430       C434 0.040       .   A
N431       N439 0.033       .   A
C432       H442 0.029       .   A
C432       H443 0.029       .   A
C432       H444 0.029       .   A
C434       H436 0.029       .   A
C434       H437 0.029       .   A
C434       H438 0.029       .   A
N439       N440 0.039       .   A
N440       N441 0.033       .   A
C405       C406 0.035       .   A
C405       C410 0.035       .   A
C406       C407 0.035       .   A
C406       H413 0.028       .   A
C407       C408 0.035       .   A
C407       C412 0.040       .   A
C408       C409 0.035       .   A
C408       N411 0.034       .   A
C409       C410 0.035       .   A
C409       H415 0.029       .   A
C410       C414 0.040       .   A
N411       N419 0.033       .   A
C412       H422 0.029       .   A
C412       H423 0.029       .   A
C412       H424 0.029       .   A
C414       H416 0.029       .   A
C414       H417 0.029       .   A
C414       H418 0.029       .   A
N419       N420 0.039       .   A
N420       N421 0.033       .   A
C385       C386 0.035       .   A
C385       C390 0.035       .   A
C386       C387 0.035       .   A
C386       H393 0.028       .   A
C387       C388 0.035       .   A
C387       C392 0.040       .   A
C388       C389 0.035       .   A
C388       N391 0.034       .   A
C389       C390 0.035       .   A
C389       H395 0.029       .   A
C390       C394 0.040       .   A
N391       N399 0.033       .   A
C392       H402 0.029       .   A
C392       H403 0.029       .   A
C392       H404 0.029       .   A
C394       H396 0.029       .   A
C394       H397 0.029       .   A
C394       H398 0.029       .   A
N399       N400 0.039       .   A
N400       N401 0.033       .   A
C365       C366 0.035       .   A
C365       C370 0.035       .   A
C366       C367 0.035       .   A
C366       H373 0.028       .   A
C367       C368 0.035       .   A
C367       C372 0.040       .   A
C368       C369 0.035       .   A
C368       N371 0.034       .   A
C369       C370 0.035       .   A
C369       H375 0.029       .   A
C370       C374 0.040       .   A
N371       N379 0.033       .   A
C372       H382 0.029       .   A
C372       H383 0.029       .   A
C372       H384 0.029       .   A
C374       H376 0.029       .   A
C374       H377 0.029       .   A
C374       H378 0.029       .   A
N379       N380 0.039       .   A
N380       N381 0.033       .   A
C345       C346 0.035       .   A
C345       C350 0.035       .   A
C346       C347 0.035       .   A
C346       H353 0.028       .   A
C347       C348 0.035       .   A
C347       C352 0.040       .   A
C348       C349 0.035       .   A
C348       N351 0.034       .   A
C349       C350 0.035       .   A
C349       H355 0.029       .   A
C350       C354 0.040       .   A
N351       N359 0.033       .   A
C352       H362 0.029       .   A
C352       H363 0.029       .   A
C352       H364 0.029       .   A
C354       H356 0.029       .   A
C354       H357 0.029       .   A
C354       H358 0.029       .   A
N359       N360 0.039       .   A
N360       N361 0.033       .   A
C325       C326 0.035       .   A
C325       C330 0.035       .   A
C326       C327 0.035       .   A
C326       H333 0.028       .   A
C327       C328 0.035       .   A
C327       C332 0.040       .   A
C328       C329 0.035       .   A
C328       N331 0.034       .   A
C329       C330 0.035       .   A
C329       H335 0.029       .   A
C330       C334 0.040       .   A
N331       N339 0.033       .   A
C332       H342 0.029       .   A
C332       H343 0.029       .   A
C332       H344 0.029       .   A
C334       H336 0.029       .   A
C334       H337 0.029       .   A
C334       H338 0.029       .   A
N339       N340 0.039       .   A
N340       N341 0.033       .   A
C305       C306 0.035       .   A
C305       C310 0.035       .   A
C306       C307 0.035       .   A
C306       H313 0.028       .   A
C307       C308 0.035       .   A
C307       C312 0.040       .   A
C308       C309 0.035       .   A
C308       N311 0.034       .   A
C309       C310 0.035       .   A
C309       H315 0.029       .   A
C310       C314 0.040       .   A
N311       N319 0.033       .   A
C312       H322 0.029       .   A
C312       H323 0.029       .   A
C312       H324 0.029       .   A
C314       H316 0.029       .   A
C314       H317 0.029       .   A
C314       H318 0.029       .   A
N319       N320 0.039       .   A
N320       N321 0.033       .   A
C285       C286 0.035       .   A
C285       C290 0.035       .   A
C286       C287 0.035       .   A
C286       H293 0.028       .   A
C287       C288 0.035       .   A
C287       C292 0.040       .   A
C288       C289 0.035       .   A
C288       N291 0.034       .   A
C289       C290 0.035       .   A
C289       H295 0.029       .   A
C290       C294 0.040       .   A
N291       N299 0.033       .   A
C292       H302 0.029       .   A
C292       H303 0.029       .   A
C292       H304 0.029       .   A
C294       H296 0.029       .   A
C294       H297 0.029       .   A
C294       H298 0.029       .   A
N299       N300 0.039       .   A
N300       N301 0.033       .   A
C265       C266 0.035       .   A
C265       C270 0.035       .   A
C266       C267 0.035       .   A
C266       H273 0.028       .   A
C267       C268 0.035       .   A
C267       C272 0.040       .   A
C268       C269 0.035       .   A
C268       N271 0.034       .   A
C269       C270 0.035       .   A
C269       H275 0.029       .   A
C270       C274 0.040       .   A
N271       N279 0.033       .   A
C272       H282 0.029       .   A
C272       H283 0.029       .   A
C272       H284 0.029       .   A
C274       H276 0.029       .   A
C274       H277 0.029       .   A
C274       H278 0.029       .   A
N279       N280 0.039       .   A
N280       N281 0.033       .   A
C245       C246 0.035       .   A
C245       C250 0.035       .   A
C246       C247 0.035       .   A
C246       H253 0.028       .   A
C247       C248 0.035       .   A
C247       C252 0.040       .   A
C248       C249 0.035       .   A
C248       N251 0.034       .   A
C249       C250 0.035       .   A
C249       H255 0.029       .   A
C250       C254 0.040       .   A
N251       N259 0.033       .   A
C252       H262 0.029       .   A
C252       H263 0.029       .   A
C252       H264 0.029       .   A
C254       H256 0.029       .   A
C254       H257 0.029       .   A
C254       H258 0.029       .   A
N259       N260 0.039       .   A
N260       N261 0.033       .   A
C225       C226 0.035       .   A
C225       C230 0.035       .   A
C226       C227 0.035       .   A
C226       H233 0.028       .   A
C227       C228 0.035       .   A
C227       C232 0.040       .   A
C228       C229 0.035       .   A
C228       N231 0.034       .   A
C229       C230 0.035       .   A
C229       H235 0.029       .   A
C230       C234 0.040       .   A
N231       N239 0.033       .   A
C232       H242 0.029       .   A
C232       H243 0.029       .   A
C232       H244 0.029       .   A
C234       H236 0.029       .   A
C234       H237 0.029       .   A
C234       H238 0.029       .   A
N239       N240 0.039       .   A
N240       N241 0.033       .   A
C205       C206 0.035       .   A
C205       C210 0.035       .   A
C206       C207 0.035       .   A
C206       H213 0.028       .   A
C207       C208 0.035       .   A
C207       C212 0.040       .   A
C208       C209 0.035       .   A
C208       N211 0.034       .   A
C209       C210 0.035       .   A
C209       H215 0.029       .   A
C210       C214 0.040       .   A
N211       N219 0.033       .   A
C212       H222 0.029       .   A
C212       H223 0.029       .   A
C212       H224 0.029       .   A
C214       H216 0.029       .   A
C214       H217 0.029       .   A
C214       H218 0.029       .   A
N219       N220 0.039       .   A
N220       N221 0.033       .   A
C185       C186 0.035       .   A
C185       C190 0.035       .   A
C186       C187 0.035       .   A
C186       H193 0.028       .   A
C187       C188 0.035       .   A
C187       C192 0.040       .   A
C188       C189 0.035       .   A
C188       N191 0.034       .   A
C189       C190 0.035       .   A
C189       H195 0.029       .   A
C190       C194 0.040       .   A
N191       N199 0.033       .   A
C192       H202 0.029       .   A
C192       H203 0.029       .   A
C192       H204 0.029       .   A
C194       H196 0.029       .   A
C194       H197 0.029       .   A
C194       H198 0.029       .   A
N199       N200 0.039       .   A
N200       N201 0.033       .   A
