data_pcu_v1-6c_Zn_1_Ch_1-0_fer_tobacco
_audit_creation_date              2021-04-07
_audit_creation_method            'tobacco_3.0'
_symmetry_space_group_name_H-M    'P1'
_symmetry_Int_Tables_number       1
_symmetry_cell_setting            triclinic
loop_
_symmetry_equiv_pos_as_xyz
  x,y,z
_cell_length_a                    52.856487178067866
_cell_length_b                    52.856487178067866
_cell_length_c                    52.856487178067866
_cell_angle_alpha                 90.0
_cell_angle_beta                  90.0
_cell_angle_gamma                 90.0
loop_
_atom_site_label
_atom_site_type_symbol
_atom_site_fract_x
_atom_site_fract_y
_atom_site_fract_z
_atom_site_charge
Zn1       Zn   -0.0212121550    0.0212121550   -0.0212121550          1.4972
Zn2       Zn    0.0212121550    0.0212121550    0.0212121550          1.4936
Zn3       Zn   -0.0212121550   -0.0212121550    0.0212121550          1.4911
Zn4       Zn    0.0212121550   -0.0212121550   -0.0212121550          1.4948
O5         O    0.0000000000    0.0000000000    0.0000000000         -2.1748
O6         O   -0.0155893826    0.0566931357   -0.0155893826         -1.0811
O7         O    0.0155893826    0.0155893826    0.0566931357         -1.0793
O8         O   -0.0566931357   -0.0155893826    0.0155893826         -1.0745
O9         O    0.0155893826    0.0566931357    0.0155893826         -1.0813
O10        O   -0.0566931357    0.0155893826   -0.0155893826         -1.0772
O11        O   -0.0155893826   -0.0155893826    0.0566931357         -1.0831
O12        O    0.0155893826   -0.0566931357   -0.0155893826          -1.077
O13        O    0.0566931357    0.0155893826    0.0155893826         -1.0846
O14        O   -0.0155893826   -0.0566931357    0.0155893826         -1.0785
O15        O    0.0566931357   -0.0155893826   -0.0155893826         -1.0831
O16        O    0.0155893826   -0.0155893826   -0.0566931357         -1.0822
O17        O   -0.0155893826    0.0155893826   -0.0566931357         -1.0801
C18        C   -0.0000000000    0.0677835435   -0.0000000000          0.4378
C19        C    0.0000000000    0.0000000000    0.0677835435          0.4427
C20        C   -0.0677835435    0.0000000000   -0.0000000000          0.4323
C21        C    0.0000000000   -0.0677835435    0.0000000000          0.4361
C22        C    0.0677835435   -0.0000000000    0.0000000000          0.4474
C23        C   -0.0000000000   -0.0000000000   -0.0677835435          0.4379
Zn24      Zn    0.9787878450    0.0212121550    0.4787878450          1.4972
Zn25      Zn    1.0212121550   -0.0212121550    0.4787878450          1.4936
Zn26      Zn    1.0212121550    0.0212121550    0.5212121550          1.4911
Zn27      Zn    0.9787878450   -0.0212121550    0.5212121550          1.4948
O28        O    1.0000000000    0.0000000000    0.5000000000         -2.1748
O29        O    0.9844106174    0.0155893826    0.4433068643         -1.0811
O30        O    1.0566931357   -0.0155893826    0.4844106174         -1.0793
O31        O    1.0155893826    0.0566931357    0.5155893826         -1.0745
O32        O    1.0155893826   -0.0155893826    0.4433068643         -1.0813
O33        O    0.9844106174    0.0566931357    0.4844106174         -1.0772
O34        O    1.0566931357    0.0155893826    0.5155893826         -1.0831
O35        O    0.9844106174   -0.0155893826    0.5566931357          -1.077
O36        O    1.0155893826   -0.0566931357    0.4844106174         -1.0846
O37        O    1.0155893826    0.0155893826    0.5566931357         -1.0785
O38        O    0.9844106174   -0.0566931357    0.5155893826         -1.0831
O39        O    0.9433068643   -0.0155893826    0.5155893826         -1.0822
O40        O    0.9433068643    0.0155893826    0.4844106174         -1.0801
C41        C    1.0000000000    0.0000000000    0.4322164565          0.4378
C42        C    1.0677835435    0.0000000000    0.5000000000          0.4427
C43        C    1.0000000000    0.0677835435    0.5000000000          0.4323
C44        C    1.0000000000    0.0000000000    0.5677835435          0.4361
C45        C    1.0000000000   -0.0677835435    0.5000000000          0.4474
C46        C    0.9322164565    0.0000000000    0.5000000000          0.4379
Zn47      Zn    1.0212121550    0.4787878450   -0.0212121550          1.4972
Zn48      Zn    0.9787878450    0.4787878450    0.0212121550          1.4936
Zn49      Zn    1.0212121550    0.5212121550    0.0212121550          1.4911
Zn50      Zn    0.9787878450    0.5212121550   -0.0212121550          1.4948
O51        O    1.0000000000    0.5000000000    0.0000000000         -2.1748
O52        O    1.0155893826    0.4433068643   -0.0155893826         -1.0811
O53        O    0.9844106174    0.4844106174    0.0566931357         -1.0793
O54        O    1.0566931357    0.5155893826    0.0155893826         -1.0745
O55        O    0.9844106174    0.4433068643    0.0155893826         -1.0813
O56        O    1.0566931357    0.4844106174   -0.0155893826         -1.0772
O57        O    1.0155893826    0.5155893826    0.0566931357         -1.0831
O58        O    0.9844106174    0.5566931357   -0.0155893826          -1.077
O59        O    0.9433068643    0.4844106174    0.0155893826         -1.0846
O60        O    1.0155893826    0.5566931357    0.0155893826         -1.0785
O61        O    0.9433068643    0.5155893826   -0.0155893826         -1.0831
O62        O    0.9844106174    0.5155893826   -0.0566931357         -1.0822
O63        O    1.0155893826    0.4844106174   -0.0566931357         -1.0801
C64        C    1.0000000000    0.4322164565    0.0000000000          0.4378
C65        C    1.0000000000    0.5000000000    0.0677835435          0.4427
C66        C    1.0677835435    0.5000000000    0.0000000000          0.4323
C67        C    1.0000000000    0.5677835435    0.0000000000          0.4361
C68        C    0.9322164565    0.5000000000    0.0000000000          0.4474
C69        C    1.0000000000    0.5000000000   -0.0677835435          0.4379
Zn70      Zn    0.9787878450    0.4787878450    0.5212121550          1.4972
Zn71      Zn    1.0212121550    0.4787878450    0.4787878450          1.4936
Zn72      Zn    0.9787878450    0.5212121550    0.4787878450          1.4911
Zn73      Zn    1.0212121550    0.5212121550    0.5212121550          1.4948
O74        O    1.0000000000    0.5000000000    0.5000000000         -2.1748
O75        O    0.9844106174    0.4433068643    0.5155893826         -1.0811
O76        O    1.0155893826    0.4844106174    0.4433068643         -1.0793
O77        O    0.9433068643    0.5155893826    0.4844106174         -1.0745
O78        O    1.0155893826    0.4433068643    0.4844106174         -1.0813
O79        O    0.9433068643    0.4844106174    0.5155893826         -1.0772
O80        O    0.9844106174    0.5155893826    0.4433068643         -1.0831
O81        O    1.0155893826    0.5566931357    0.5155893826          -1.077
O82        O    1.0566931357    0.4844106174    0.4844106174         -1.0846
O83        O    0.9844106174    0.5566931357    0.4844106174         -1.0785
O84        O    1.0566931357    0.5155893826    0.5155893826         -1.0831
O85        O    1.0155893826    0.5155893826    0.5566931357         -1.0822
O86        O    0.9844106174    0.4844106174    0.5566931357         -1.0801
C87        C    1.0000000000    0.4322164565    0.5000000000          0.4378
C88        C    1.0000000000    0.5000000000    0.4322164565          0.4427
C89        C    0.9322164565    0.5000000000    0.5000000000          0.4323
C90        C    1.0000000000    0.5677835435    0.5000000000          0.4361
C91        C    1.0677835435    0.5000000000    0.5000000000          0.4474
C92        C    1.0000000000    0.5000000000    0.5677835435          0.4379
Zn93      Zn    0.4787878450    0.9787878450   -0.0212121550          1.4972
Zn94      Zn    0.4787878450    1.0212121550    0.0212121550          1.4936
Zn95      Zn    0.5212121550    0.9787878450    0.0212121550          1.4911
Zn96      Zn    0.5212121550    1.0212121550   -0.0212121550          1.4948
O97        O    0.5000000000    1.0000000000    0.0000000000         -2.1748
O98        O    0.4433068643    0.9844106174   -0.0155893826         -1.0811
O99        O    0.4844106174    1.0155893826    0.0566931357         -1.0793
O100       O    0.5155893826    0.9433068643    0.0155893826         -1.0745
O101       O    0.4433068643    1.0155893826    0.0155893826         -1.0813
O102       O    0.4844106174    0.9433068643   -0.0155893826         -1.0772
O103       O    0.5155893826    0.9844106174    0.0566931357         -1.0831
O104       O    0.5566931357    1.0155893826   -0.0155893826          -1.077
O105       O    0.4844106174    1.0566931357    0.0155893826         -1.0846
O106       O    0.5566931357    0.9844106174    0.0155893826         -1.0785
O107       O    0.5155893826    1.0566931357   -0.0155893826         -1.0831
O108       O    0.5155893826    1.0155893826   -0.0566931357         -1.0822
O109       O    0.4844106174    0.9844106174   -0.0566931357         -1.0801
C110       C    0.4322164565    1.0000000000    0.0000000000          0.4378
C111       C    0.5000000000    1.0000000000    0.0677835435          0.4427
C112       C    0.5000000000    0.9322164565    0.0000000000          0.4323
C113       C    0.5677835435    1.0000000000    0.0000000000          0.4361
C114       C    0.5000000000    1.0677835435    0.0000000000          0.4474
C115       C    0.5000000000    1.0000000000   -0.0677835435          0.4379
Zn116     Zn    0.4787878450    1.0212121550    0.5212121550          1.4972
Zn117     Zn    0.4787878450    0.9787878450    0.4787878450          1.4936
Zn118     Zn    0.5212121550    1.0212121550    0.4787878450          1.4911
Zn119     Zn    0.5212121550    0.9787878450    0.5212121550          1.4948
O120       O    0.5000000000    1.0000000000    0.5000000000         -2.1748
O121       O    0.4433068643    1.0155893826    0.5155893826         -1.0811
O122       O    0.4844106174    0.9844106174    0.4433068643         -1.0793
O123       O    0.5155893826    1.0566931357    0.4844106174         -1.0745
O124       O    0.4433068643    0.9844106174    0.4844106174         -1.0813
O125       O    0.4844106174    1.0566931357    0.5155893826         -1.0772
O126       O    0.5155893826    1.0155893826    0.4433068643         -1.0831
O127       O    0.5566931357    0.9844106174    0.5155893826          -1.077
O128       O    0.4844106174    0.9433068643    0.4844106174         -1.0846
O129       O    0.5566931357    1.0155893826    0.4844106174         -1.0785
O130       O    0.5155893826    0.9433068643    0.5155893826         -1.0831
O131       O    0.5155893826    0.9844106174    0.5566931357         -1.0822
O132       O    0.4844106174    1.0155893826    0.5566931357         -1.0801
C133       C    0.4322164565    1.0000000000    0.5000000000          0.4378
C134       C    0.5000000000    1.0000000000    0.4322164565          0.4427
C135       C    0.5000000000    1.0677835435    0.5000000000          0.4323
C136       C    0.5677835435    1.0000000000    0.5000000000          0.4361
C137       C    0.5000000000    0.9322164565    0.5000000000          0.4474
C138       C    0.5000000000    1.0000000000    0.5677835435          0.4379
Zn139     Zn    0.4787878450    0.5212121550   -0.0212121550          1.4972
Zn140     Zn    0.4787878450    0.4787878450    0.0212121550          1.4936
Zn141     Zn    0.5212121550    0.4787878450   -0.0212121550          1.4911
Zn142     Zn    0.5212121550    0.5212121550    0.0212121550          1.4948
O143       O    0.5000000000    0.5000000000    0.0000000000         -2.1748
O144       O    0.4433068643    0.5155893826   -0.0155893826         -1.0811
O145       O    0.4844106174    0.4433068643    0.0155893826         -1.0793
O146       O    0.5155893826    0.4844106174   -0.0566931357         -1.0745
O147       O    0.4433068643    0.4844106174    0.0155893826         -1.0813
O148       O    0.4844106174    0.5155893826   -0.0566931357         -1.0772
O149       O    0.5155893826    0.4433068643   -0.0155893826         -1.0831
O150       O    0.5566931357    0.5155893826    0.0155893826          -1.077
O151       O    0.4844106174    0.4844106174    0.0566931357         -1.0846
O152       O    0.5566931357    0.4844106174   -0.0155893826         -1.0785
O153       O    0.5155893826    0.5155893826    0.0566931357         -1.0831
O154       O    0.5155893826    0.5566931357    0.0155893826         -1.0822
O155       O    0.4844106174    0.5566931357   -0.0155893826         -1.0801
C156       C    0.4322164565    0.5000000000    0.0000000000          0.4378
C157       C    0.5000000000    0.4322164565    0.0000000000          0.4427
C158       C    0.5000000000    0.5000000000   -0.0677835435          0.4323
C159       C    0.5677835435    0.5000000000    0.0000000000          0.4361
C160       C    0.5000000000    0.5000000000    0.0677835435          0.4474
C161       C    0.5000000000    0.5677835435    0.0000000000          0.4379
Zn162     Zn    0.4787878450    0.4787878450    0.5212121550          1.4972
Zn163     Zn    0.4787878450    0.5212121550    0.4787878450          1.4936
Zn164     Zn    0.5212121550    0.5212121550    0.5212121550          1.4911
Zn165     Zn    0.5212121550    0.4787878450    0.4787878450          1.4948
O166       O    0.5000000000    0.5000000000    0.5000000000         -2.1748
O167       O    0.4433068643    0.4844106174    0.5155893826         -1.0811
O168       O    0.4844106174    0.5566931357    0.4844106174         -1.0793
O169       O    0.5155893826    0.5155893826    0.5566931357         -1.0745
O170       O    0.4433068643    0.5155893826    0.4844106174         -1.0813
O171       O    0.4844106174    0.4844106174    0.5566931357         -1.0772
O172       O    0.5155893826    0.5566931357    0.5155893826         -1.0831
O173       O    0.5566931357    0.4844106174    0.4844106174          -1.077
O174       O    0.4844106174    0.5155893826    0.4433068643         -1.0846
O175       O    0.5566931357    0.5155893826    0.5155893826         -1.0785
O176       O    0.5155893826    0.4844106174    0.4433068643         -1.0831
O177       O    0.5155893826    0.4433068643    0.4844106174         -1.0822
O178       O    0.4844106174    0.4433068643    0.5155893826         -1.0801
C179       C    0.4322164565    0.5000000000    0.5000000000          0.4378
C180       C    0.5000000000    0.5677835435    0.5000000000          0.4427
C181       C    0.5000000000    0.5000000000    0.5677835435          0.4323
C182       C    0.5677835435    0.5000000000    0.5000000000          0.4361
C183       C    0.5000000000    0.5000000000    0.4322164565          0.4474
C184       C    0.5000000000    0.4322164565    0.5000000000          0.4379
C1335      C    0.5000000000    0.5000000000   -0.4030809599         -0.3343
C1336      C    0.5226812558    0.4984640199   -0.3919177267         -0.3357
C1337      C    0.5249078793    0.4947072893   -0.3673509046          0.6611
C1338      C    0.5046646120    0.4914453826   -0.3525827258          0.6584
C1339      C    0.4815269223    0.4922615122   -0.3634501551          0.6591
C1340      C    0.4788480122    0.4977766782   -0.3884004967         -0.3362
N1341      N    0.5070101455    0.4877091982   -0.3283912129          0.6552
H1342      H    0.5439256666    0.4936811983   -0.3594546221          0.6603
H1343      H    0.5402010964    0.5000135498   -0.4026019111         -0.3344
C1344      C    0.4548024310    0.5010670352   -0.3968374513         -0.3334
C1345      C    0.4606680237    0.4881484045   -0.3492796819          0.6556
C1346      C    0.4375414036    0.4907595312   -0.3584608207          0.6579
C1347      C    0.4346175933    0.4976919333   -0.3822969152         -0.3362
H1348      H    0.4617935300    0.4824858180   -0.3295927121          0.6508
H1349      H    0.4211202764    0.4877146062   -0.3464386171          0.6553
H1350      H    0.4157461064    0.5005150590   -0.3899416834         -0.3338
H1351      H    0.4498208756    0.5073098952   -0.4155764026         -0.3281
N1352      N    0.5211711289    0.5047606115   -0.3185358861         -0.3302
C1353      C    0.5190847045    0.5024560784   -0.2941423018         -0.3322
C1354      C    0.5406700444    0.4991197952   -0.2816716080          -0.335
C1355      C    0.5408919442    0.4947363134   -0.2570393838          0.6613
C1356      C    0.5195124423    0.4929511191   -0.2436858938          0.6598
C1357      C    0.4972986606    0.4961165034   -0.2559187210          0.6625
C1358      C    0.4973016272    0.5022213420   -0.2805466423         -0.3323
C1359      C    0.4743352745    0.4934046467   -0.2455409294          0.6602
N1360      N    0.4525756896    0.4975523918   -0.2564604139         -0.3362
N1361      N    0.4528848182    0.5070982027   -0.2789788229         -0.3281
C1362      C    0.4747477186    0.5082773685   -0.2903778115         -0.3271
C1363      C    0.5239407666    0.4884175870   -0.2155489963          0.6559
H1364      H    0.5591751117    0.4921949897   -0.2479073884          0.6591
H1365      H    0.4723943891    0.4858484866   -0.2268463200          0.6538
H1366      H    0.4740257336    0.5159252814   -0.3093936737         -0.3206
H1367      H    0.5586369806    0.4995158893   -0.2917455653         -0.3347
C1368      C    0.5049729168    0.4988857120   -0.1959777706         -0.3351
N1369      N    0.5175997543    0.4987192180   -0.1712565918         -0.3352
N1370      N    0.5264916279    0.4803475810   -0.1761489317          0.6491
N1371      N    0.5357089862    0.4887701368   -0.1983144951          0.6562
C1372      C    0.5115323772    0.5002692856   -0.1466489698         -0.3338
H1373      H    0.4882024297    0.4867158424   -0.1944159203          0.6546
H1374      H    0.4987745468    0.5180685343   -0.2008651835         -0.3187
H1375      H    0.5423226163    0.4973288726   -0.2116614390         -0.3365
C1376      C    0.5240631446    0.5013845353   -0.1046530094         -0.3329
C1377      C    0.5000000000    0.5000000000   -0.0969190401          -0.334
C1378      C    0.4816709486    0.4995256569   -0.1144557804         -0.3344
H1379      H    0.4618413496    0.4985279349   -0.1091022200         -0.3352
H1380      H    0.5396698312    0.5019179949   -0.0912228022         -0.3324
H1381      H    0.5495049873    0.5022894335   -0.1347709910         -0.3322
H1382      H    0.4722678660    0.4987681586   -0.1528880312         -0.3351
C1383      C    0.5297090773    0.5015559367   -0.1290946014         -0.3327
C1384      C    0.4874321066    0.4996598894   -0.1390093550         -0.3343
C1285      C    0.5000000000    0.5000000000    0.0969190401         -0.3343
C1286      C    0.5020731178    0.5226384802    0.1080822733         -0.3357
C1287      C    0.5058815663    0.5247754397    0.1326490954          0.6611
C1288      C    0.5086627705    0.5044605485    0.1474172742          0.6584
C1289      C    0.5072984830    0.4813487014    0.1365498449          0.6591
C1290      C    0.5017213733    0.4788012589    0.1115995033         -0.3362
N1291      N    0.5124534968    0.5067168717    0.1716087871          0.6552
H1292      H    0.5073581102    0.5437635654    0.1405453779          0.6603
H1293      H    0.5009392614    0.5401901247    0.0973980889         -0.3344
C1294      C    0.4978620357    0.4548404172    0.1031625487         -0.3334
C1295      C    0.5109160580    0.4603981773    0.1507203181          0.6556
C1296      C    0.5077575401    0.4373399402    0.1415391793          0.6579
C1297      C    0.5007577881    0.4345812562    0.1177030848         -0.3362
H1298      H    0.5166037295    0.4613891584    0.1704072879          0.6508
H1299      H    0.5104124121    0.4208512579    0.1535613829          0.6553
H1300      H    0.4974881817    0.4157819815    0.1100583166         -0.3338
H1301      H    0.4915028614    0.4500082234    0.0844235974         -0.3281
N1302      N    0.4957425033    0.5212780132    0.1814641139         -0.3302
C1303      C    0.4979969386    0.5191375550    0.2058576982         -0.3322
C1304      C    0.5018438794    0.5406377581    0.2183283920          -0.335
C1305      C    0.5062313891    0.5407557025    0.2429606162          0.6613
C1306      C    0.5075093657    0.5193398954    0.2563141062          0.6598
C1307      C    0.5038183812    0.4972073766    0.2440812790          0.6625
C1308      C    0.4977153278    0.4973550333    0.2194533577         -0.3323
C1309      C    0.5059852202    0.4741861672    0.2544590706          0.6602
N1310      N    0.5013229157    0.4525310007    0.2435395861         -0.3362
N1311      N    0.4917871130    0.4530662880    0.2210211771         -0.3281
C1312      C    0.4911264516    0.4749509943    0.2096221885         -0.3271
C1313      C    0.5121465802    0.5236595263    0.2844510037          0.6559
H1314      H    0.5092053288    0.5589735022    0.2520926116          0.6591
H1315      H    0.5134932567    0.4720667383    0.2731536800          0.6538
H1316      H    0.4834635753    0.4744104756    0.1906063263         -0.3206
H1317      H    0.5018737314    0.5586090350    0.2082544347         -0.3347
C1318      C    0.5012318383    0.5049451101    0.3040222294         -0.3351
N1319      N    0.5016975545    0.5175644546    0.3287434082         -0.3352
N1320      N    0.5202747773    0.5260184036    0.3238510683          0.6491
N1321      N    0.5120730483    0.5354327959    0.3016855049          0.6562
C1322      C    0.5000041193    0.5115355200    0.3533510302         -0.3338
H1323      H    0.5130008114    0.4878908955    0.3055840797          0.6546
H1324      H    0.4819074968    0.4992031339    0.2991348165         -0.3187
H1325      H    0.5036734666    0.5422474190    0.2883385610         -0.3365
C1326      C    0.4991861749    0.5240892000    0.3953469906         -0.3329
C1327      C    0.5000000000    0.5000000000    0.4030809599          -0.334
C1328      C    0.5000397925    0.4816648550    0.3855442196         -0.3344
H1329      H    0.5005672523    0.4618171793    0.3908977800         -0.3352
H1330      H    0.4990227597    0.5397041461    0.4087771978         -0.3324
H1331      H    0.4988845288    0.5495453428    0.3652290090         -0.3322
H1332      H    0.5005742152    0.4722464603    0.3471119688         -0.3351
C1333      C    0.4991486361    0.5297376090    0.3709053986         -0.3327
C1334      C    0.5000421431    0.4874275761    0.3609906450         -0.3343
C1235      C    0.5000000000    0.9030809599    0.5000000000         -0.3343
C1236      C    0.5011964964    0.8919177267    0.5227016959         -0.3357
C1237      C    0.5049194962    0.8673509046    0.5249842709          0.6611
C1238      C    0.5084838775    0.8525827258    0.5047920672          0.6584
C1239      C    0.5080139793    0.8634501551    0.4816447574          0.6591
C1240      C    0.5025395070    0.8884004967    0.4788836402         -0.3362
N1241      N    0.5121845545    0.8283912129    0.5071932316          0.6552
H1242      H    0.5056609661    0.8594546221    0.5440152804          0.6603
H1243      H    0.4993850428    0.9026019111    0.5401963949         -0.3344
C1244      C    0.4996092405    0.8968374513    0.4547915261         -0.3334
C1245      C    0.5124386761    0.8492796819    0.4608497252          0.6556
C1246      C    0.5101738161    0.8584608207    0.4376866307          0.6579
C1247      C    0.5032859301    0.8822969152    0.4346594387         -0.3362
H1248      H    0.5180837913    0.8295927121    0.4620598180          0.6508
H1249      H    0.5134640606    0.8464386171    0.4213128933          0.6553
H1250      H    0.5007454379    0.8899416834    0.4157478297         -0.3338
H1251      H    0.4934416032    0.9155764026    0.4497171349         -0.3281
N1252      N    0.4949232008    0.8185358861    0.5210975409         -0.3302
C1253      C    0.4972586890    0.7941423018    0.5190458258         -0.3322
C1254      C    0.5002716819    0.7816716080    0.5406786610          -0.335
C1255      C    0.5046513536    0.7570393838    0.5409661129          0.6613
C1256      C    0.5067561857    0.7436858938    0.5196157101          0.6598
C1257      C    0.5039234741    0.7559187210    0.4973570601          0.6625
C1258      C    0.4978192743    0.7805466423    0.4972686978         -0.3323
C1259      C    0.5069785599    0.7455409294    0.4744368131          0.6602
N1260      N    0.5031568026    0.7564604139    0.4526176130         -0.3362
N1261      N    0.4936074354    0.7789788229    0.4527839015         -0.3281
C1262      C    0.4921013322    0.7903778115    0.4746267149         -0.3271
C1263      C    0.5112229627    0.7155489963    0.5241113605          0.6559
H1264      H    0.5069188764    0.7479073884    0.5592852527          0.6591
H1265      H    0.5145629100    0.7268463200    0.4726091852          0.6538
H1266      H    0.4844650761    0.8093936737    0.4737903979         -0.3206
H1267      H    0.4996068465    0.7917455653    0.5586376610         -0.3347
C1268      C    0.5010397684    0.6959777706    0.5049890301         -0.3351
N1269      N    0.5010173461    0.6712565918    0.5176169453         -0.3352
N1270      N    0.5192539046    0.6761489317    0.5267826637          0.6491
N1271      N    0.5106943996    0.6983144951    0.5358729890          0.6562
C1272      C    0.4995582200    0.6466489698    0.5115270581         -0.3338
H1273      H    0.5134591628    0.6944159203    0.4884024811          0.6546
H1274      H    0.4819518205    0.7008651835    0.4985043784         -0.3187
H1275      H    0.5020376816    0.7116614390    0.5423578402         -0.3365
C1276      C    0.4982556347    0.6046530094    0.5240397391         -0.3329
C1277      C    0.5000000000    0.5969190401    0.5000000000          -0.334
C1278      C    0.5007484929    0.6144557804    0.4816800959         -0.3344
H1279      H    0.5020427542    0.6091022200    0.4618676420         -0.3352
H1280      H    0.4974887586    0.5912228022    0.5396366987         -0.3324
H1281      H    0.4969702275    0.6347709910    0.5494651974         -0.3322
H1282      H    0.5016465766    0.6528880312    0.4722893978         -0.3351
C1283      C    0.4979997893    0.6290946014    0.5296824758         -0.3327
C1284      C    0.5005280884    0.6390093550    0.4874386011         -0.3343
C1185      C    0.5000000000    1.0969190401    0.5000000000         -0.3343
C1186      C    0.4799169887    1.1080822733    0.4893477111         -0.3357
C1187      C    0.4794160069    1.1326490954    0.4850095209          0.6611
C1188      C    0.4992296497    1.1474172742    0.4902867799          0.6584
C1189      C    0.5200229824    1.1365498449    0.5004679424          0.6591
C1190      C    0.5202198074    1.1115995033    0.5065961457         -0.3362
N1191      N    0.4986117163    1.1716087871    0.4859188560          0.6552
H1192      H    0.4624700304    1.1405453779    0.4763168241          0.6603
H1193      H    0.4632883452    1.0973980889    0.4836176090         -0.3344
C1194      C    0.5408330656    1.1031625487    0.5194066885         -0.3334
C1195      C    0.5407458711    1.1507203181    0.5052190674          0.6556
C1196      C    0.5607970629    1.1415391793    0.5170346607          0.6579
C1197      C    0.5606395218    1.1177030848    0.5245567645         -0.3362
H1198      H    0.5420275223    1.1704072879    0.4995897672          0.6508
H1199      H    0.5770323623    1.1535613829    0.5209512971          0.6553
H1200      H    0.5767190522    1.1100583166    0.5348306029         -0.3338
H1201      H    0.5428355833    1.0844235974    0.5271383842         -0.3281
N1202      N    0.4787279611    1.1814641139    0.4957127533         -0.3302
C1203      C    0.4815728297    1.2058576982    0.4944594528         -0.3322
C1204      C    0.4632246561    1.2183283920    0.4826103090          -0.335
C1205      C    0.4648097139    1.2429606162    0.4785174196          0.6613
C1206      C    0.4850585793    1.2563141062    0.4856063877          0.6598
C1207      C    0.5040502556    1.2440812790    0.4975557804          0.6625
C1208      C    0.5015578790    1.2194533577    0.5031286721         -0.3323
C1209      C    0.5261232174    1.2544590706    0.5044445852          0.6602
N1210      N    0.5442995582    1.2435395861    0.5171057051         -0.3362
N1211      N    0.5401243432    1.2210211771    0.5256955622         -0.3281
C1212      C    0.5196812544    1.2096221885    0.5178561130         -0.3271
C1213      C    0.4828641004    1.2844510037    0.4796610339          0.6559
H1214      H    0.4491524318    1.2520926116    0.4687408118          0.6591
H1215      H    0.5309769119    1.2731536800    0.4983368655          0.6538
H1216      H    0.5172215094    1.1906063263    0.5251335775         -0.3206
H1217      H    0.4466581789    1.2082544347    0.4756447136         -0.3347
C1218      C    0.4959138418    1.3040222294    0.4969545360         -0.3351
N1219      N    0.4844526445    1.3287434082    0.4916530548         -0.3352
N1220      N    0.4838261038    1.3238510683    0.4712523218          0.6491
N1221      N    0.4719751995    1.3016855049    0.4751836329          0.6562
C1222      C    0.4893603947    1.3533510302    0.4955427545         -0.3338
H1223      H    0.5161894528    1.3055840797    0.4926819997          0.6546
H1224      H    0.4937502279    1.2991348165    0.5169974709         -0.3187
H1225      H    0.4624461260    1.2883385610    0.4803011342         -0.3365
C1226      C    0.4774641963    1.3953469906    0.4914507651         -0.3329
C1227      C    0.5000000000    1.4030809599    0.5000000000          -0.334
C1228      C    0.5169290226    1.3855442196    0.5070418266         -0.3344
H1229      H    0.5354415831    1.3908977800    0.5142177270         -0.3352
H1230      H    0.4629967552    1.4087771978    0.4855731470         -0.3324
H1231      H    0.4538651596    1.3652290090    0.4819013323         -0.3322
H1232      H    0.5258235503    1.3471119688    0.5101849369         -0.3351
C1233      C    0.4722392040    1.3709053986    0.4893047478         -0.3327
C1234      C    0.5116139805    1.3609906450    0.5048148808         -0.3343
C1135      C    0.5000000000    0.9030809599    0.0000000000         -0.3343
C1136      C    0.5087783290    0.8919177267   -0.0209699676         -0.3357
C1137      C    0.5064155216    0.8673509046   -0.0246425712          0.6611
C1138      C    0.4944379464    0.8525827258   -0.0080002278          0.6584
C1139      C    0.4848116040    0.8634501551    0.0130557045          0.6591
C1140      C    0.4885444361    0.8884004967    0.0179198160         -0.3362
N1141      N    0.4921467350    0.8283912129   -0.0117699693          0.6552
H1142      H    0.5140100883    0.8594546221   -0.0421082993          0.6603
H1143      H    0.5180056550    0.9026019111   -0.0359433543         -0.3344
C1144      C    0.4807242846    0.8968374513    0.0408950560         -0.3334
C1145      C    0.4717973016    0.8492796819    0.0298675825          0.6556
C1146      C    0.4637810717    0.8584608207    0.0517170354          0.6579
C1147      C    0.4686716381    0.8822969152    0.0574344846         -0.3362
H1148      H    0.4672373551    0.8295927121    0.0263266028          0.6508
H1149      H    0.4537082751    0.8464386171    0.0650385878          0.6553
H1150      H    0.4627495337    0.8899416834    0.0755737166         -0.3338
H1151      H    0.4840772127    0.9155764026    0.0481439917         -0.3281
N1152      N    0.5137330766    0.8185358861   -0.0168012716         -0.3302
C1153      C    0.5107384124    0.7941423018   -0.0159669899         -0.3322
C1154      C    0.5174163198    0.7816716080   -0.0367627404          -0.335
C1155      C    0.5135957557    0.7570393838   -0.0389231669          0.6613
C1156      C    0.5024301503    0.7436858938   -0.0206037981          0.6598
C1157      C    0.4953181352    0.7559187210    0.0006774376          0.6625
C1158      C    0.5007786524    0.7805466423    0.0034072389         -0.3323
C1159      C    0.4826149433    0.7455409294    0.0199984156          0.6602
N1160      N    0.4765846875    0.7564604139    0.0413131836         -0.3362
N1161      N    0.4852592935    0.7789788229    0.0453093413         -0.3281
C1162      C    0.4960993277    0.7903778115    0.0262864471         -0.3271
C1163      C    0.5003581514    0.7155489963   -0.0265929375          0.6559
H1164      H    0.5195065340    0.7479073884   -0.0564101690          0.6591
H1165      H    0.4749892070    0.7268463200    0.0183519840          0.6538
H1166      H    0.5026152436    0.8093936737    0.0303551907         -0.3206
H1167      H    0.5258123123    0.7917455653   -0.0526522021         -0.3347
C1168      C    0.5012293785    0.6959777706   -0.0049457222         -0.3351
N1169      N    0.5067321170    0.6712565918   -0.0163116632         -0.3352
N1170      N    0.4942833667    0.6761489317   -0.0324860589          0.6491
N1171      N    0.5059407323    0.6983144951   -0.0369587503          0.6562
C1172      C    0.5054025624    0.6466489698   -0.0101921812         -0.3338
H1173      H    0.4828403242    0.6944159203    0.0046040237          0.6546
H1174      H    0.5156091034    0.7008651835    0.0091831126         -0.3187
H1175      H    0.5165544773    0.7116614390   -0.0390421317         -0.3365
C1176      C    0.5120084872    0.6046530094   -0.0208985191         -0.3329
C1177      C    0.5000000000    0.5969190401    0.0000000000          -0.334
C1178      C    0.4913719555    0.6144557804    0.0161782563         -0.3344
H1179      H    0.4816042575    0.6091022200    0.0334641036         -0.3352
H1180      H    0.5194708975    0.5912228022   -0.0346158687         -0.3324
H1181      H    0.5242051529    0.6347709910   -0.0432446048         -0.3322
H1182      H    0.4864858612    0.6528880312    0.0242478193         -0.3351
C1183      C    0.5146888143    0.6290946014   -0.0258706194         -0.3327
C1184      C    0.4940706182    0.6390093550    0.0110864806         -0.3343
C1085      C    0.5000000000    1.4030809599    0.0000000000         -0.3343
C1086      C    0.4798651506    1.3919177267    0.0105539774         -0.3357
C1087      C    0.4793429656    1.3673509046    0.0148896664          0.6611
C1088      C    0.4991821718    1.3525827258    0.0097093379          0.6584
C1089      C    0.5200250308    1.3634501551   -0.0003700460          0.6591
C1090      C    0.5202518138    1.3884004967   -0.0064972138         -0.3362
N1091      N    0.4985428913    1.3283912129    0.0140741885          0.6552
H1092      H    0.4623546937    1.3594546221    0.0234994118          0.6603
H1093      H    0.4632086918    1.4026019111    0.0162027149         -0.3344
C1094      C    0.5409274554    1.3968374513   -0.0192068269         -0.3334
C1095      C    0.5407708998    1.3492796819   -0.0050198017          0.6556
C1096      C    0.5608796174    1.3584608207   -0.0167372251          0.6579
C1097      C    0.5607588532    1.3822969152   -0.0242600092         -0.3362
H1098      H    0.5420250144    1.3295927121    0.0006156971          0.6508
H1099      H    0.5771338710    1.3464386171   -0.0205744416          0.6553
H1100      H    0.5768884194    1.3899416834   -0.0344551133         -0.3338
H1101      H    0.5429677487    1.4155764026   -0.0269286401         -0.3281
N1102      N    0.4787072553    1.3185358861    0.0041831981         -0.3302
C1103      C    0.4815459627    1.2941423018    0.0054503920         -0.3322
C1104      C    0.4631400787    1.2816716080    0.0172096914          -0.335
C1105      C    0.4647051079    1.2570393838    0.0213102812          0.6613
C1106      C    0.4849883886    1.2436858938    0.0143203928          0.6598
C1107      C    0.5040382576    1.2559187210    0.0024639918          0.6625
C1108      C    0.5015731562    1.2805466423   -0.0031210184         -0.3323
C1109      C    0.5261446344    1.2455409294   -0.0043168178          0.6602
N1110      N    0.5443826572    1.2564604139   -0.0168889237         -0.3362
N1111      N    0.5402494872    1.2789788229   -0.0254990904         -0.3281
C1112      C    0.5197683163    1.2903778115   -0.0177596795         -0.3271
C1113      C    0.4827648696    1.2155489963    0.0202549470          0.6559
H1114      H    0.4490002158    1.2479073884    0.0310102249          0.6591
H1115      H    0.5309684107    1.2268463200    0.0018145583          0.6538
H1116      H    0.5173441796    1.3093936737   -0.0250490825         -0.3206
H1117      H    0.4465397453    1.2917455653    0.0240942114         -0.3347
C1118      C    0.4958990017    1.1959777706    0.0030254507         -0.3351
N1119      N    0.4844120228    1.1712565918    0.0082708356         -0.3352
N1120      N    0.4836857520    1.1761489317    0.0286682617          0.6491
N1121      N    0.4718542091    1.1983144951    0.0246790595          0.6562
C1122      C    0.4893387308    1.1466489698    0.0044051761         -0.3338
H1123      H    0.5161534822    1.1944159203    0.0073970618          0.6546
H1124      H    0.4938334019    1.2008651835   -0.0170278224         -0.3187
H1125      H    0.4623502686    1.2116614390    0.0195150325         -0.3365
C1126      C    0.4774226691    1.1046530094    0.0084389570         -0.3329
C1127      C    0.5000000000    1.0969190401    0.0000000000          -0.334
C1128      C    0.5169632472    1.1144557804   -0.0069589778         -0.3344
H1129      H    0.5355106689    1.1091022200   -0.0140442860         -0.3352
H1130      H    0.4629266656    1.0912228022    0.0142457746         -0.3324
H1131      H    0.4537772280    1.1347709910    0.0178729019         -0.3322
H1132      H    0.5258730350    1.1528880312   -0.0100585659         -0.3351
C1133      C    0.4721872476    1.1290946014    0.0105594040         -0.3327
C1134      C    0.5116373813    1.1390093550   -0.0047580434         -0.3343
C1035      C    0.5000000000    1.0000000000   -0.0969190401         -0.3343
C1036      C    0.5226811648    1.0015373237   -0.1080822733         -0.3357
C1037      C    0.5249075657    1.0052941861   -0.1326490954          0.6611
C1038      C    0.5046641053    1.0085548937   -0.1474172742          0.6584
C1039      C    0.4815264639    1.0077373935   -0.1365498449          0.6591
C1040      C    0.4788478805    1.0022220688   -0.1115995033         -0.3362
N1041      N    0.5070094175    1.0122912170   -0.1716087871          0.6552
H1042      H    0.5439252922    1.0063214037   -0.1405453779          0.6603
H1043      H    0.5402010971    0.9999888316   -0.0973980889         -0.3344
C1044      C    0.4548024943    0.9989302876   -0.1031625487         -0.3334
C1045      C    0.4606673217    1.0118492657   -0.1507203181          0.6556
C1046      C    0.4375408564    1.0092367690   -0.1415391793          0.6579
C1047      C    0.4346174566    1.0023041938   -0.1177030848         -0.3362
H1048      H    0.4617924926    1.0175119188   -0.1704072879          0.6508
H1049      H    0.4211195488    1.0122807213   -0.1535613829          0.6553
H1050      H    0.4157461371    0.9994799502   -0.1100583166         -0.3338
H1051      H    0.4498213087    0.9926871325   -0.0844235974         -0.3281
N1052      N    0.5211714109    0.9952406425   -0.1814641139         -0.3302
C1053      C    0.5190848500    0.9975450520   -0.2058576982         -0.3322
C1054      C    0.5406699922    1.0008826139   -0.2183283920          -0.335
C1055      C    0.5408916323    1.0052661089   -0.2429606162          0.6613
C1056      C    0.5195120248    1.0070500367   -0.2563141062          0.6598
C1057      C    0.4972984306    1.0038833366   -0.2440812790          0.6625
C1058      C    0.4973017588    0.9977784982   -0.2194533577         -0.3323
C1059      C    0.4743348838    1.0065938331   -0.2544590706          0.6602
N1060      N    0.4525755447    1.0024447990   -0.2435395861         -0.3362
N1061      N    0.4528852388    0.9928990064   -0.2210211771         -0.3281
C1062      C    0.4747482089    0.9917211357   -0.2096221885         -0.3271
C1063      C    0.5239400805    1.0115838311   -0.2844510037          0.6559
H1064      H    0.5591746493    1.0078085155   -0.2520926116          0.6591
H1065      H    0.4723935509    1.0141498781   -0.2731536800          0.6538
H1066      H    0.4740266770    0.9840731800   -0.1906063263         -0.3206
H1067      H    0.5586369518    1.0004875840   -0.2082544347         -0.3347
C1068      C    0.5049728508    1.0011145826   -0.3040222294         -0.3351
N1069      N    0.5175996785    1.0012818245   -0.3287434082         -0.3352
N1070      N    0.5264904637    1.0196539882   -0.3238510683          0.6491
N1071      N    0.5357083209    1.0112319784   -0.3016855049          0.6562
C1072      C    0.5115323931    0.9997313975   -0.3533510302         -0.3338
H1073      H    0.4882016428    1.0132834588   -0.3055840797          0.6546
H1074      H    0.4987756171    0.9819313931   -0.2991348165         -0.3187
H1075      H    0.5423224580    1.0026736344   -0.2883385610         -0.3365
C1076      C    0.5240632266    0.9986168901   -0.3953469906         -0.3329
C1077      C    0.5000000000    1.0000000000   -0.4030809599          -0.334
C1078      C    0.4816709205    1.0004732574   -0.3855442196         -0.3344
H1079      H    0.4618412625    1.0014698047   -0.3908977800         -0.3352
H1080      H    0.5396699448    0.9980843550   -0.4087771978         -0.3324
H1081      H    0.5495051228    0.9977134990   -0.3652290090         -0.3322
H1082      H    0.4722677931    1.0012301986   -0.3471119688         -0.3351
C1083      C    0.5297091694    0.9984458231   -0.3709053986         -0.3327
C1084      C    0.4874320865    1.0003393662   -0.3609906450         -0.3343
C985       C    0.5000000000    1.0000000000    0.4030809599         -0.3343
C986       C    0.5018673759    0.9773436210    0.3919177267         -0.3357
C987       C    0.5056562543    0.9751721523    0.3673509046          0.6611
C988       C    0.5086218917    0.9954609398    0.3525827258          0.6584
C989       C    0.5074676172    1.0185842268    0.3634501551          0.6591
C990       C    0.5019138795    1.0211822287    0.3884004967         -0.3362
N991       N    0.5123919644    0.9931702733    0.3283912129          0.6552
H992       H    0.5069602421    0.9561713966    0.3594546221          0.6603
H993       H    0.5005741206    0.9598030011    0.4026019111         -0.3344
C994       C    0.4982723703    1.0451771414    0.3968374513         -0.3334
C995       C    0.5112753652    1.0395010230    0.3492796819          0.6556
C996       C    0.5083264472    1.0625870018    0.3584608207          0.6579
C997       C    0.5013520449    1.0654091604    0.3822969152         -0.3362
H998       H    0.5169537995    1.0384584139    0.3295927121          0.6508
H999       H    0.5111309990    1.0790508859    0.3464386171          0.6553
H1000      H    0.4982533531    1.0842373617    0.3899416834         -0.3338
H1001      H    0.4919573558    1.0500669049    0.4155764026         -0.3281
N1002      N    0.4955493816    0.9787615415    0.3185358861         -0.3302
C1003      C    0.4978231686    0.9808814312    0.2941423018         -0.3322
C1004      C    0.5014746349    0.9593471683    0.2816716080          -0.335
C1005      C    0.5058608921    0.9591893710    0.2570393838          0.6613
C1006      C    0.5073333651    0.9805926848    0.2436858938          0.6598
C1007      C    0.5038435928    1.0027578206    0.2559187210          0.6625
C1008      C    0.4977394499    1.0026656124    0.2805466423         -0.3323
C1009      C    0.5062194757    1.0257583956    0.2455409294          0.6602
N1010      N    0.5017540871    1.0474550227    0.2564604139         -0.3362
N1011      N    0.4922138151    1.0470063843    0.2789788229         -0.3281
C1012      C    0.4913543722    1.0251285827    0.2903778115         -0.3271
C1013      C    0.5119311471    0.9762311059    0.2155489963          0.6559
H1014      H    0.5086692118    0.9409453067    0.2479073884          0.6591
H1015      H    0.5137464560    1.0278095313    0.2268463200          0.6538
H1016      H    0.4836967224    1.0257386915    0.3093936737         -0.3206
H1017      H    0.5013412279    0.9413763618    0.2917455653         -0.3347
C1018      C    0.5011868642    0.9950439035    0.1959777706         -0.3351
N1019      N    0.5015379224    0.9824208490    0.1712565918         -0.3352
N1020      N    0.5200375798    0.9737984864    0.1761489317          0.6491
N1021      N    0.5117506655    0.9644589901    0.1983144951          0.6562
C1022      C    0.4998993261    0.9884649186    0.1466489698         -0.3338
H1023      H    0.5131102786    1.0119905006    0.1944159203          0.6546
H1024      H    0.4819154824    1.0009611922    0.2008651835         -0.3187
H1025      H    0.5032895238    0.9577209532    0.2116614390         -0.3365
C1026      C    0.4989673733    0.9759191871    0.1046530094         -0.3329
C1027      C    0.5000000000    1.0000000000    0.0969190401          -0.334
C1028      C    0.5002063541    1.0183340270    0.1144557804         -0.3344
H1029      H    0.5009140958    1.0381760920    0.1091022200         -0.3352
H1030      H    0.4986621128    0.9603063699    0.0912228022         -0.3324
H1031      H    0.4984344866    0.9504668350    0.1347709910         -0.3322
H1032      H    0.5008263150    1.0277471781    0.1528880312         -0.3351
C1033      C    0.4988785237    0.9702713522    0.1290946014         -0.3327
C1034      C    0.5001563539    1.0125715223    0.1390093550         -0.3343
C935       C    0.9030809599    0.5000000000    0.5000000000         -0.3343
C936       C    0.8919177267    0.5226801317    0.5015524908         -0.3357
C937       C    0.8673509046    0.5249040198    0.5053108412          0.6611
C938       C    0.8525827258    0.5046583834    0.5085580108          0.6584
C939       C    0.8634501551    0.4815212939    0.5077250381          0.6591
C940       C    0.8884004967    0.4788463993    0.5022079234         -0.3362
N941       N    0.8283912129    0.5070011965    0.5122959016          0.6552
H942       H    0.8594546221    0.5439210551    0.5063507762          0.6603
H943       H    0.9026019111    0.5402010956    0.5000157150         -0.3344
C944       C    0.8968374513    0.4548032197    0.4989000631         -0.3334
C945       C    0.8492796819    0.4606594066    0.5118229603          0.6556
C946       C    0.8584608207    0.4375346935    0.5091949990          0.6579
C947       C    0.8822969152    0.4346159304    0.5022604704         -0.3362
H948       H    0.8295927121    0.4617807905    0.5174863646          0.6508
H949       H    0.8464386171    0.4211113540    0.5122279693          0.6553
H950       H    0.8899416834    0.4157465037    0.4994236077         -0.3338
H951       H    0.9155764026    0.4498262102    0.4926535784         -0.3281
N952       N    0.8185358861    0.5211745888    0.4952548014         -0.3302
C953       C    0.7941423018    0.5190864874    0.4975578151         -0.3322
C954       C    0.7816716080    0.5406693929    0.5009098107          -0.335
C955       C    0.7570393838    0.5408881016    0.5052934529          0.6613
C956       C    0.7436858938    0.5195073059    0.5070630833          0.6598
C957       C    0.7559187210    0.4972958343    0.5038815291          0.6625
C958       C    0.7805466423    0.4973032449    0.4977766943         -0.3323
C959       C    0.7455409294    0.4743304801    0.5065766687          0.6602
N960       N    0.7564604139    0.4525739204    0.5024130845         -0.3362
N961       N    0.7789788229    0.4528899979    0.4928675012         -0.3281
C962       C    0.7903778115    0.4747537508    0.4917042510         -0.3271
C963       C    0.7155489963    0.5239323287    0.5115998379          0.6559
H964       H    0.7479073884    0.5591694143    0.5078480853          0.6591
H965       H    0.7268463200    0.4723840947    0.5141314138          0.6538
H966       H    0.8093936737    0.4740373335    0.4840558146         -0.3206
H967       H    0.7917455653    0.5586366126    0.5005267959         -0.3347
C968       C    0.6959777706    0.5049721043    0.5011179078         -0.3351
N969       N    0.6712565918    0.5175988173    0.5012935936         -0.3352
N970       N    0.6761489317    0.5264773147    0.5196716986          0.6491
N971       N    0.6983144951    0.5357008018    0.5112558549          0.6562
C972       C    0.6466489698    0.5115325702    0.4997391096         -0.3338
H973       H    0.6944159203    0.4881927625    0.5132755660          0.6546
H974       H    0.7008651835    0.4987877003    0.4819305784         -0.3187
H975       H    0.7116614390    0.5423206606    0.5027019359         -0.3365
C976       C    0.6046530094    0.5240641461    0.4986329821         -0.3329
C977       C    0.5969190401    0.5000000000    0.5000000000          -0.334
C978       C    0.6144557804    0.4816706081    0.5004610002         -0.3344
H979       H    0.6091022200    0.4618402881    0.5014442867         -0.3352
H980       H    0.5912228022    0.5396712170    0.4981108837         -0.3324
H981       H    0.6347709910    0.5495066408    0.4977466048         -0.3322
H982       H    0.6528880312    0.4722669766    0.5012116532         -0.3351
C983       C    0.6290946014    0.5297102021    0.4984656907         -0.3327
C984       C    0.6390093550    0.4874318623    0.5003309616         -0.3343
C885       C    1.4030809599    0.5000000000    0.5000000000         -0.3343
C886       C    1.3919177267    0.4773228009    0.4984052452         -0.3357
C887       C    1.3673509046    0.4751059208    0.4946427568          0.6611
C888       C    1.3525827258    0.4953575734    0.4914333227          0.6584
C889       C    1.3634501551    0.5184930704    0.4923094123          0.6591
C890       C    1.3884004967    0.5211576787    0.4978315023         -0.3362
N891       N    1.3283912129    0.4930217303    0.4876910723          0.6552
H892       H    1.3594546221    0.4560908564    0.4935673835          0.6603
H893       H    1.4026019111    0.4597990035    0.4999093662         -0.3344
C894       C    1.3968374513    0.5451946519    0.5011841638         -0.3334
C895       C    1.3492796819    0.5393625584    0.4882503754          0.6556
C896       C    1.3584608207    0.5624823338    0.4909214274          0.6579
C897       C    1.3822969152    0.5653881687    0.4978613834         -0.3362
H898       H    1.3295927121    0.5382517307    0.4825848912          0.6508
H899       H    1.3464386171    0.5789112970    0.4879190690          0.6553
H900       H    1.3899416834    0.5842522759    0.5007334063         -0.3338
H901       H    1.4155764026    0.5501600118    0.5074399128         -0.3281
N902       N    1.3185358861    0.4788166048    0.5047057293         -0.3302
C903       C    1.2941423018    0.4809089945    0.5024066111         -0.3322
C904       C    1.2816716080    0.4593323732    0.4990143993          -0.335
C905       C    1.2570393838    0.4591218343    0.4946303572          0.6613
C906       C    1.2436858938    0.4805058908    0.4929005751          0.6598
C907       C    1.2559187210    0.5027113946    0.4961235171          0.6625
C908       C    1.2805466423    0.5026926070    0.5022283275         -0.3323
C909       C    1.2455409294    0.5256817316    0.4934711805          0.6602
N910       N    1.2564604139    0.5474304942    0.4976753030         -0.3362
N911       N    1.2789788229    0.5470966281    0.5072202806         -0.3281
C912       C    1.2903778115    0.5252307453    0.5083427835         -0.3271
C913       C    1.2155489963    0.4760893303    0.4883555820          0.6559
H914       H    1.2479073884    0.4408453141    0.4920416601          0.6591
H915       H    1.2268463200    0.5276421927    0.4859200757          0.6538
H916       H    1.3093936737    0.5259329078    0.5159925418         -0.3206
H917       H    1.2917455653    0.4413644709    0.4993639298         -0.3347
C918       C    1.1959777706    0.4950299876    0.4988728281         -0.3351
N919       N    1.1712565918    0.4824036240    0.4986736115         -0.3352
N920       N    1.1761489317    0.4735593915    0.4802789924          0.6491
N921       N    1.1983144951    0.4643202366    0.4886776325          0.6562
C922       C    1.1466489698    0.4884669637    0.5002393978         -0.3338
H923       H    1.1944159203    0.5118319574    0.4867464611          0.6546
H924       H    1.2008651835    0.5011786234    0.5180716495         -0.3187
H925       H    1.2116614390    0.4576844482    0.4972192000         -0.3365
C926       C    1.1046530094    0.4759333481    0.5013221696         -0.3329
C927       C    1.0969190401    0.5000000000    0.5000000000          -0.334
C928       C    1.1144557804    0.5183302191    0.4995731593         -0.3344
H929       H    1.1091022200    0.5381623372    0.4986268303         -0.3352
H930       H    1.0912228022    0.4603253314    0.5018151817         -0.3324
H931       H    1.1347709910    0.4504892458    0.5021611307         -0.3322
H932       H    1.1528880312    0.5277352333    0.4988400322         -0.3351
C933       C    1.1290946014    0.4702869902    0.5014789386         -0.3327
C934       C    1.1390093550    0.5125687326    0.4996924610         -0.3343
C835       C    0.5969190401    0.5000000000    0.0000000000         -0.3343
C836       C    0.6080822733    0.4817053010    0.0134945392         -0.3357
C837       C    0.6326490954    0.4818488517    0.0178592007          0.6611
C838       C    0.6474172742    0.5006689267    0.0097207316          0.6584
C839       C    0.6365498449    0.5197356001   -0.0034124600          0.6591
C840       C    0.6115995033    0.5190275207   -0.0095027998         -0.3362
N841       N    0.6716087871    0.5007011819    0.0141320307          0.6552
H842       H    0.6405453779    0.4663682915    0.0289534044          0.6603
H843       H    0.5973980889    0.4661021864    0.0216117229         -0.3344
C844       C    0.6031625487    0.5375287454   -0.0252101582         -0.3334
C845       C    0.6507203181    0.5395325070   -0.0111644780          0.6556
C846       C    0.6415391793    0.5576243652   -0.0258049426          0.6579
C847       C    0.6177030848    0.5563604477   -0.0332217733         -0.3362
H848       H    0.6704072879    0.5416294382   -0.0057853953          0.6508
H849       H    0.6535613829    0.5731055720   -0.0320705010          0.6553
H850       H    0.6100583166    0.5707510937   -0.0457522307         -0.3338
H851       H    0.5844235974    0.5383704452   -0.0331524965         -0.3281
N852       N    0.6814641139    0.4795915993    0.0073740968         -0.3302
C853       C    0.7058576982    0.4825900567    0.0081946411         -0.3322
C854       C    0.7183283920    0.4661875793    0.0226174155          -0.335
C855       C    0.7429606162    0.4683582755    0.0264321540          0.6613
C856       C    0.7563141062    0.4873419386    0.0164376278          0.6598
C857       C    0.7440812790    0.5043661303    0.0018209027          0.6625
C858       C    0.7194533577    0.5010799922   -0.0033240326         -0.3323
C859       C    0.7544590706    0.5251834754   -0.0082443550          0.6602
N860       N    0.7435395861    0.5412963809   -0.0234449338         -0.3362
N861       N    0.7210211771    0.5359013293   -0.0313260178         -0.3281
C862       C    0.7096221885    0.5168361165   -0.0205605867         -0.3271
C863       C    0.7844510037    0.4860472224    0.0226413912          0.6559
H864       H    0.7520926116    0.4543120231    0.0384086033          0.6591
H865       H    0.7731536800    0.5308839561   -0.0029182767          0.6538
H866       H    0.6906063263    0.5133311503   -0.0273963051         -0.3206
H867       H    0.7082544347    0.4508279557    0.0319474555         -0.3347
C868       C    0.8040222294    0.4964070544    0.0036141778         -0.3351
N869       N    0.8287434082    0.4858518687    0.0105461906         -0.3352
N870       N    0.8238510683    0.4882374334    0.0308166505          0.6491
N871       N    0.8016855049    0.4759366926    0.0286740084          0.6562
C872       C    0.8533510302    0.4901330769    0.0059759575         -0.3338
H873       H    0.8055840797    0.5170908556    0.0048532632          0.6546
H874       H    0.7991348165    0.4913144833   -0.0158913645         -0.3187
H875       H    0.7883385610    0.4657577118    0.0250160841         -0.3365
C876       C    0.8953469906    0.4789694635    0.0117757548         -0.3329
C877       C    0.9030809599    0.5000000000    0.0000000000          -0.334
C878       C    0.8855442196    0.5157069839   -0.0094588468         -0.3344
H879       H    0.8908977800    0.5329604790   -0.0192835785         -0.3352
H880       H    0.9087771978    0.4655257036    0.0197204742         -0.3324
H881       H    0.8652290090    0.4570346348    0.0246974222         -0.3322
H882       H    0.8471119688    0.5240414558   -0.0138779355         -0.3351
C883       C    0.8709053986    0.4741176092    0.0146680625         -0.3327
C884       C    0.8609906450    0.5107779840   -0.0064732280         -0.3343
C785       C    1.4030809599    0.5000000000    0.0000000000         -0.3343
C786       C    1.3919177267    0.4950317641   -0.0221836704         -0.3357
C787       C    1.3673509046    0.4980015205   -0.0253854548          0.6611
C788       C    1.3525827258    0.5068777824   -0.0069018978          0.6584
C789       C    1.3634501551    0.5126658504    0.0155149936          0.6591
C790       C    1.3884004967    0.5081384915    0.0196498016         -0.3362
N791       N    1.3283912129    0.5097940706   -0.0102118622          0.6552
H792       H    1.3594546221    0.4935847322   -0.0439116816          0.6603
H793       H    1.4026019111    0.4885707754   -0.0385421997         -0.3344
C794       C    1.3968374513    0.5118120156    0.0436398338         -0.3334
C795       C    1.3492796819    0.5225330959    0.0343471144          0.6556
C796       C    1.3584608207    0.5265969219    0.0572631319          0.6579
C797       C    1.3822969152    0.5207802198    0.0620352218         -0.3362
H798       H    1.3295927121    0.5276429387    0.0316598935          0.6508
H799       H    1.3464386171    0.5341797308    0.0721435215          0.6553
H800       H    1.3899416834    0.5234324098    0.0809314898         -0.3338
H801       H    1.4155764026    0.5072408223    0.0501891381         -0.3281
N802       N    1.3185358861    0.4894232414   -0.0189476199         -0.3302
C803       C    1.2941423018    0.4922253975   -0.0176015290         -0.3322
C804       C    1.2816716080    0.4892945637   -0.0392456483          -0.335
C805       C    1.2570393838    0.4934345662   -0.0407032256          0.6613
C806       C    1.2436858938    0.5012175766   -0.0207108579          0.6598
C807       C    1.2559187210    0.5044907373    0.0014872991          0.6625
C808       C    1.2805466423    0.4986363879    0.0032180954         -0.3323
C809       C    1.2455409294    0.5136120487    0.0227351919          0.6602
N810       N    1.2564604139    0.5158143096    0.0447768200         -0.3362
N811       N    1.2789788229    0.5065737068    0.0471912197         -0.3281
C812       C    1.2903778115    0.4992345005    0.0265632558         -0.3271
C813       C    1.2155489963    0.5043069194   -0.0262442954          0.6559
H814       H    1.2479073884    0.4906792455   -0.0589553693          0.6591
H815       H    1.2268463200    0.5214082964    0.0224503882          0.6538
H816       H    1.3093936737    0.4921064743    0.0294273572         -0.3206
H817       H    1.2917455653    0.4838125593   -0.0563604171         -0.3347
C818       C    1.1959777706    0.4996562139   -0.0050846190         -0.3351
N819       N    1.1712565918    0.4962301076   -0.0172388998         -0.3352
N820       N    1.1761489317    0.5113203004   -0.0309818450          0.6491
N821       N    1.1983144951    0.5006269666   -0.0374279098          0.6562
C822       C    1.1466489698    0.4964668576   -0.0109811267         -0.3338
H823       H    1.1944159203    0.5160875110    0.0075394628          0.6546
H824       H    1.2008651835    0.4830233356    0.0063060711         -0.3187
H825       H    1.2116614390    0.4905424611   -0.0413387678         -0.3365
C826       C    1.1046530094    0.4918390578   -0.0226793053         -0.3329
C827       C    1.0969190401    0.5000000000    0.0000000000          -0.334
C828       C    1.1144557804    0.5056598648    0.0174397551         -0.3344
H829       H    1.1091022200    0.5122476839    0.0361696532         -0.3352
H830       H    1.0912228022    0.4868956025   -0.0374919856         -0.3324
H831       H    1.1347709910    0.4837464864   -0.0468167552         -0.3322
H832       H    1.1528880312    0.5090564473    0.0262406069         -0.3351
C833       C    1.1290946014    0.4900713915   -0.0280441249         -0.3327
C834       C    1.1390093550    0.5038951156    0.0119538987         -0.3343
C735       C    1.0000000000    0.5000000000   -0.4030809599         -0.3343
C736       C    1.0226792476    0.4984346475   -0.3919177267         -0.3357
C737       C    1.0249010040    0.4946750365   -0.3673509046          0.6611
C738       C    1.0046535294    0.4914393488   -0.3525827258          0.6584
C739       C    0.9815169160    0.4922854425   -0.3634501551          0.6591
C740       C    0.9788451506    0.4978040732   -0.3884004967         -0.3362
N741       N    1.0069942223    0.4877001300   -0.3283912129          0.6552
H742       H    1.0439174465    0.4936243171   -0.3594546221          0.6603
H743       H    1.0402010802    0.4999614869   -0.4026019111         -0.3344
C744       C    0.9548038508    0.5011255679   -0.3968374513         -0.3334
C745       C    0.9606527081    0.4881993518   -0.3492796819          0.6556
C746       C    0.9375294890    0.4908404267   -0.3584608207          0.6579
C747       C    0.9346146590    0.4977766094   -0.3822969152         -0.3362
H748       H    0.9617708801    0.4825353124   -0.3295927121          0.6508
H749       H    0.9211044322    0.4878167706   -0.3464386171          0.6553
H750       H    0.9157468441    0.5006241726   -0.3899416834         -0.3338
H751       H    0.9498303845    0.5073748741   -0.4155764026         -0.3281
N752       N    1.0211772765    0.5047331896   -0.3185358861         -0.3302
C753       C    1.0190878693    0.5024313605   -0.2941423018         -0.3322
C754       C    1.0406688704    0.4990671257   -0.2816716080          -0.335
C755       C    1.0408850931    0.4946833602   -0.2570393838          0.6613
C756       C    1.0195032972    0.4929258552   -0.2436858938          0.6598
C757       C    0.9972936335    0.4961200051   -0.2559187210          0.6625
C758       C    0.9973045062    0.5022248347   -0.2805466423         -0.3323
C759       C    0.9743267546    0.4934378896   -0.2455409294          0.6602
N760       N    0.9525725596    0.4976138113   -0.2564604139         -0.3362
N761       N    0.9528940503    0.5071592138   -0.2789788229         -0.3281
C762       C    0.9747584594    0.5083100648   -0.2903778115         -0.3271
C763       C    1.0239257466    0.4883865919   -0.2155489963          0.6559
H764       H    1.0591649541    0.4921183609   -0.2479073884          0.6591
H765       H    0.9723760852    0.4858842495   -0.2268463200          0.6538
H766       H    0.9740463796    0.5159589064   -0.3093936737         -0.3206
H767       H    1.0586363044    0.4994399512   -0.2917455653         -0.3347
C768       C    1.0049714696    0.4988792727   -0.1959777706         -0.3351
N769       N    1.0175980809    0.4986964263   -0.1712565918         -0.3352
N770       N    1.0264661545    0.4803132892   -0.1761489317          0.6491
N771       N    1.0356944129    0.4887239009   -0.1983144951          0.6562
C772       C    1.0115327163    0.5002543502   -0.1466489698         -0.3338
H773       H    0.9881852358    0.4867311321   -0.1944159203          0.6546
H774       H    0.9987979477    0.5180701062   -0.2008651835         -0.3187
H775       H    1.0423191215    0.4972740644   -0.2116614390         -0.3365
C776       C    1.0240649175    0.5013533709   -0.1046530094         -0.3329
C777       C    1.0000000000    0.5000000000   -0.0969190401          -0.334
C778       C    0.9816703497    0.4995493945   -0.1144557804         -0.3344
H779       H    0.9618394752    0.4985773540   -0.1091022200         -0.3352
H780       H    1.0396722819    0.5018666184   -0.0912228022         -0.3324
H781       H    1.0495079107    0.5022253195   -0.1347709910         -0.3322
H782       H    0.9722662939    0.4988040745   -0.1528880312         -0.3351
C783       C    1.0297110674    0.5015174603   -0.1290946014         -0.3327
C784       C    0.9874316767    0.4996761659   -0.1390093550         -0.3343
C685       C    1.0000000000    0.5000000000    0.0969190401         -0.3343
C686       C    1.0020731178    0.5226384802    0.1080822733         -0.3357
C687       C    1.0058815663    0.5247754397    0.1326490954          0.6611
C688       C    1.0086627705    0.5044605485    0.1474172742          0.6584
C689       C    1.0072984830    0.4813487014    0.1365498449          0.6591
C690       C    1.0017213733    0.4788012589    0.1115995033         -0.3362
N691       N    1.0124534968    0.5067168717    0.1716087871          0.6552
H692       H    1.0073581102    0.5437635654    0.1405453779          0.6603
H693       H    1.0009392614    0.5401901247    0.0973980889         -0.3344
C694       C    0.9978620357    0.4548404172    0.1031625487         -0.3334
C695       C    1.0109160580    0.4603981773    0.1507203181          0.6556
C696       C    1.0077575401    0.4373399402    0.1415391793          0.6579
C697       C    1.0007577881    0.4345812562    0.1177030848         -0.3362
H698       H    1.0166037295    0.4613891584    0.1704072879          0.6508
H699       H    1.0104124121    0.4208512579    0.1535613829          0.6553
H700       H    0.9974881817    0.4157819815    0.1100583166         -0.3338
H701       H    0.9915028614    0.4500082234    0.0844235974         -0.3281
N702       N    0.9957425033    0.5212780132    0.1814641139         -0.3302
C703       C    0.9979969386    0.5191375550    0.2058576982         -0.3322
C704       C    1.0018438794    0.5406377581    0.2183283920          -0.335
C705       C    1.0062313891    0.5407557025    0.2429606162          0.6613
C706       C    1.0075093657    0.5193398954    0.2563141062          0.6598
C707       C    1.0038183812    0.4972073766    0.2440812790          0.6625
C708       C    0.9977153278    0.4973550333    0.2194533577         -0.3323
C709       C    1.0059852202    0.4741861672    0.2544590706          0.6602
N710       N    1.0013229157    0.4525310007    0.2435395861         -0.3362
N711       N    0.9917871130    0.4530662880    0.2210211771         -0.3281
C712       C    0.9911264516    0.4749509943    0.2096221885         -0.3271
C713       C    1.0121465802    0.5236595263    0.2844510037          0.6559
H714       H    1.0092053288    0.5589735022    0.2520926116          0.6591
H715       H    1.0134932567    0.4720667383    0.2731536800          0.6538
H716       H    0.9834635753    0.4744104756    0.1906063263         -0.3206
H717       H    1.0018737314    0.5586090350    0.2082544347         -0.3347
C718       C    1.0012318383    0.5049451101    0.3040222294         -0.3351
N719       N    1.0016975545    0.5175644546    0.3287434082         -0.3352
N720       N    1.0202747773    0.5260184036    0.3238510683          0.6491
N721       N    1.0120730483    0.5354327959    0.3016855049          0.6562
C722       C    1.0000041193    0.5115355200    0.3533510302         -0.3338
H723       H    1.0130008114    0.4878908955    0.3055840797          0.6546
H724       H    0.9819074968    0.4992031339    0.2991348165         -0.3187
H725       H    1.0036734666    0.5422474190    0.2883385610         -0.3365
C726       C    0.9991861749    0.5240892000    0.3953469906         -0.3329
C727       C    1.0000000000    0.5000000000    0.4030809599          -0.334
C728       C    1.0000397925    0.4816648550    0.3855442196         -0.3344
H729       H    1.0005672523    0.4618171793    0.3908977800         -0.3352
H730       H    0.9990227597    0.5397041461    0.4087771978         -0.3324
H731       H    0.9988845288    0.5495453428    0.3652290090         -0.3322
H732       H    1.0005742152    0.4722464603    0.3471119688         -0.3351
C733       C    0.9991486361    0.5297376090    0.3709053986         -0.3327
C734       C    1.0000421431    0.4874275761    0.3609906450         -0.3343
C635       C    1.0000000000   -0.0969190401    0.5000000000         -0.3343
C636       C    0.9995701093   -0.1080822733    0.4772708602         -0.3357
C637       C    0.9959262399   -0.1326490954    0.4748639758          0.6611
C638       C    0.9916826303   -0.1474172742    0.4949244264          0.6584
C639       C    0.9913713022   -0.1365498449    0.5180744119          0.6591
C640       C    0.9967495015   -0.1115995033    0.5210186586         -0.3362
N641       N    0.9880650722   -0.1716087871    0.4923997732          0.6552
H642       H    0.9958272726   -0.1405453779    0.4558187847          0.6603
H643       H    1.0019707789   -0.0973980889    0.4598472372         -0.3344
C644       C    0.9988652645   -0.1031625487    0.5451959200         -0.3334
C645       C    0.9862475282   -0.1507203181    0.5387083221          0.6556
C646       C    0.9877296074   -0.1415391793    0.5619346429          0.6579
C647       C    0.9945114387   -0.1177030848    0.5651924994         -0.3362
H648       H    0.9806464537   -0.1704072879    0.5373084597          0.6508
H649       H    0.9838888083   -0.1535613829    0.5781880502          0.6553
H650       H    0.9964124325   -0.1100583166    0.5841790546         -0.3338
H651       H    1.0048581874   -0.0844235974    0.5504755099         -0.3281
N652       N    1.0057857113   -0.1814641139    0.4790857545         -0.3302
C653       C    1.0033823307   -0.2058576982    0.4810575053         -0.3322
C654       C    1.0011009156   -0.2183283920    0.4593353316          -0.335
C655       C    0.9967334356   -0.2429606162    0.4589002792          0.6613
C656       C    0.9939094682   -0.2563141062    0.4801675128          0.6598
C657       C    0.9959895904   -0.2440812790    0.5025090625          0.6625
C658       C    1.0020873338   -0.2194533577    0.5028033219         -0.3323
C659       C    0.9921629458   -0.2544590706    0.5253131864          0.6602
N660       N    0.9952463771   -0.2435395861    0.5472489055         -0.3362
N661       N    1.0047959181   -0.2210211771    0.5474048943         -0.3281
C662       C    1.0070381107   -0.2096221885    0.5256253301         -0.3271
C663       C    0.9895969113   -0.2844510037    0.4755237188          0.6559
H664       H    0.9950852666   -0.2520926116    0.4405150655          0.6591
H665       H    0.9845212519   -0.2731536800    0.5268838881          0.6538
H666       H    1.0146418033   -0.1906063263    0.5267188079         -0.3206
H667       H    1.0023712848   -0.2082544347    0.4414089865         -0.3347
C668       C    0.9991291466   -0.3040222294    0.4949787299         -0.3351
N669       N    0.9995776049   -0.3287434082    0.4823587603         -0.3352
N670       N    0.9816606676   -0.3238510683    0.4725829833          0.6491
N671       N    0.9905219948   -0.3016855049    0.4637866193          0.6562
C672       C    1.0008304358   -0.3533510302    0.4884944094         -0.3338
H673       H    0.9861572150   -0.3055840797    0.5111368224          0.6546
H674       H    1.0179874442   -0.2991348165    0.5021036912         -0.3187
H675       H    0.9993925746   -0.2883385610    0.4575975260         -0.3365
C676       C    1.0025544404   -0.3953469906    0.4760327995         -0.3329
C677       C    1.0000000000   -0.4030809599    0.5000000000          -0.334
C678       C    0.9986338445   -0.3855442196    0.5182842212         -0.3344
H679       H    0.9966718747   -0.3908977800    0.5380417291         -0.3352
H680       H    1.0038471002   -0.4087771978    0.4604705928         -0.3324
H681       H    1.0046969363   -0.3652290090    0.4506651841         -0.3322
H682       H    0.9974194427   -0.3471119688    0.5276392730         -0.3351
C683       C    1.0030005185   -0.3709053986    0.4704019072         -0.3327
C684       C    0.9990484077   -0.3609906450    0.5125364306         -0.3343
C585       C    1.0000000000    0.0969190401    0.5000000000         -0.3343
C586       C    0.9995701093    0.1080822733    0.5227291398         -0.3357
C587       C    0.9959262399    0.1326490954    0.5251360242          0.6611
C588       C    0.9916826303    0.1474172742    0.5050755736          0.6584
C589       C    0.9913713022    0.1365498449    0.4819255881          0.6591
C590       C    0.9967495015    0.1115995033    0.4789813414         -0.3338
N591       N    0.9880650722    0.1716087871    0.5076002268          0.6552
H592       H    0.9958272726    0.1405453779    0.5441812153          0.6603
H593       H    1.0019707789    0.0973980889    0.5401527628         -0.3344
C594       C    0.9988652645    0.1031625487    0.4548040800         -0.3334
C595       C    0.9862475282    0.1507203181    0.4612916779          0.6556
C596       C    0.9877296074    0.1415391793    0.4380653571          0.6579
C597       C    0.9945114387    0.1177030848    0.4348075006         -0.3362
H598       H    0.9806464537    0.1704072879    0.4626915403          0.6508
H599       H    0.9838888083    0.1535613829    0.4218119498          0.6553
H600       H    0.9964124325    0.1100583166    0.4158209454         -0.3338
H601       H    1.0048581874    0.0844235974    0.4495244901         -0.3281
N602       N    1.0057857113    0.1814641139    0.5209142455         -0.3302
C603       C    1.0033823307    0.2058576982    0.5189424947         -0.3322
C604       C    1.0011009156    0.2183283920    0.5406646684          -0.335
C605       C    0.9967334356    0.2429606162    0.5410997208          0.6613
C606       C    0.9939094682    0.2563141062    0.5198324872          0.6598
C607       C    0.9959895904    0.2440812790    0.4974909375          0.6625
C608       C    1.0020873338    0.2194533577    0.4971966781         -0.3323
C609       C    0.9921629458    0.2544590706    0.4746868136          0.6602
N610       N    0.9952463771    0.2435395861    0.4527510945         -0.3362
N611       N    1.0047959181    0.2210211771    0.4525951057         -0.3281
C612       C    1.0070381107    0.2096221885    0.4743746699         -0.3271
C613       C    0.9895969113    0.2844510037    0.5244762812          0.6559
H614       H    0.9950852666    0.2520926116    0.5594849345          0.6591
H615       H    0.9845212519    0.2731536800    0.4731161119          0.6538
H616       H    1.0146418033    0.1906063263    0.4732811921         -0.3206
H617       H    1.0023712848    0.2082544347    0.5585910135         -0.3347
C618       C    0.9991291466    0.3040222294    0.5050212701         -0.3351
N619       N    0.9995776049    0.3287434082    0.5176412397         -0.3352
N620       N    0.9816606676    0.3238510683    0.5274170167          0.6491
N621       N    0.9905219948    0.3016855049    0.5362133807          0.6562
C622       C    1.0008304358    0.3533510302    0.5115055906         -0.3338
H623       H    0.9861572150    0.3055840797    0.4888631776          0.6546
H624       H    1.0179874442    0.2991348165    0.4978963088         -0.3187
H625       H    0.9993925746    0.2883385610    0.5424024740         -0.3365
C626       C    1.0025544404    0.3953469906    0.5239672005         -0.3329
C627       C    1.0000000000    0.4030809599    0.5000000000          -0.334
C628       C    0.9986338445    0.3855442196    0.4817157788         -0.3344
H629       H    0.9966718747    0.3908977800    0.4619582709         -0.3352
H630       H    1.0038471002    0.4087771978    0.5395294072         -0.3324
H631       H    1.0046969363    0.3652290090    0.5493348159         -0.3322
H632       H    0.9974194427    0.3471119688    0.4723607270         -0.3351
C633       C    1.0030005185    0.3709053986    0.5295980928         -0.3327
C634       C    0.9990484077    0.3609906450    0.4874635694         -0.3343
C535       C    0.9030809599   -0.0000000000    0.5000000000         -0.3343
C536       C    0.8919177267    0.0024131457    0.4773952366         -0.3357
C537       C    0.8673509046    0.0062532831    0.4753157604          0.6611
C538       C    0.8525827258    0.0087288351    0.4956701591          0.6584
C539       C    0.8634501551    0.0070173248    0.5187588898          0.6591
C540       C    0.8884004967    0.0014025564    0.5212222191         -0.3362
N541       N    0.8283912129    0.0125530464    0.4934710663          0.6552
H542       H    0.8594546221    0.0080150566    0.4563519724          0.6603
H543       H    0.9026019111    0.0015432231    0.4598285326         -0.3344
C544       C    0.8968374513   -0.0028164829    0.5451223474         -0.3334
C545       C    0.8492796819    0.0103195994    0.5397614203          0.6556
C546       C    0.8584608207    0.0068148671    0.5627695795          0.6579
C547       C    0.8822969152   -0.0002255579    0.5654227438         -0.3362
H548       H    0.8295927121    0.0160215231    0.5388560384          0.6508
H549       H    0.8464386171    0.0092216101    0.5792963026          0.6553
H550       H    0.8899416834   -0.0037773529    0.5841707519         -0.3338
H551       H    0.9155764026   -0.0092475679    0.5498584153         -0.3281
N552       N    0.8185358861   -0.0039372018    0.4786603992         -0.3302
C553       C    0.7941423018   -0.0017151928    0.4808345002         -0.3322
C554       C    0.7816716080    0.0024544670    0.4593945463          -0.335
C555       C    0.7570393838    0.0068432539    0.4593425607          0.6613
C556       C    0.7436858938    0.0077992010    0.4807751569          0.6598
C557       C    0.7559187210    0.0037759760    0.5028496992          0.6625
C558       C    0.7805466423   -0.0023241687    0.5026103288         -0.3323
C559       C    0.7455409294    0.0055965557    0.5259008762          0.6602
N560       N    0.7564604139    0.0006092951    0.5474835209         -0.3362
N561       N    0.7789788229   -0.0089173849    0.5468049686         -0.3281
C562       C    0.7903778115   -0.0092490390    0.5249128044         -0.3271
C563       C    0.7155489963    0.0125008168    0.4765257125          0.6559
H564       H    0.7479073884    0.0100906757    0.4411715180          0.6591
H565       H    0.7268463200    0.0130718884    0.5281329134          0.6538
H566       H    0.8093936737   -0.0169191738    0.5253380871         -0.3206
H567       H    0.7917455653    0.0027544285    0.4414257482         -0.3347
C568       C    0.6959777706    0.0013060254    0.4950739633         -0.3351
N569       N    0.6712565918    0.0019613610    0.4824630442         -0.3352
N570       N    0.6761489317    0.0206635503    0.4742892706          0.6491
N571       N    0.6983144951    0.0126042485    0.4647526676          0.6562
C572       C    0.6466489698    0.0001775006    0.4884658450         -0.3338
H573       H    0.6944159203    0.0128173399    0.5123031421          0.6546
H574       H    0.7008651835   -0.0181024365    0.5005248412         -0.3187
H575       H    0.7116614390    0.0043080411    0.4578125664         -0.3365
C576       C    0.6046530094   -0.0004516663    0.4759012891         -0.3329
C577       C    0.5969190401   -0.0000000000    0.5000000000          -0.334
C578       C    0.6144557804   -0.0002357939    0.5183336720         -0.3344
H579       H    0.6091022200   -0.0000067093    0.5381870335         -0.3352
H580       H    0.5912228022   -0.0003803665    0.4602856507         -0.3324
H581       H    0.6347709910   -0.0003706661    0.4504434880         -0.3322
H582       H    0.6528880312    0.0001570076    0.5277590353         -0.3351
C583       C    0.6290946014   -0.0004043039    0.4702529539         -0.3327
C584       C    0.6390093550   -0.0001468284    0.5125716372         -0.3343
C485       C    1.4030809599   -0.0000000000    0.5000000000         -0.3343
C486       C    1.3919177267    0.0067907027    0.4783047250         -0.3357
C487       C    1.3673509046    0.0109635675    0.4770170624          0.6611
C488       C    1.3525827258    0.0094074571    0.4974623167          0.6584
C489       C    1.3634501551    0.0032100973    0.5197695237          0.6591
C490       C    1.3884004967   -0.0027782047    0.5210862829         -0.3362
N491       N    1.3283912129    0.0135881153    0.4960542339          0.6552
H492       H    1.3594546221    0.0164028802    0.4587648577          0.6603
H493       H    1.4026019111    0.0093757785    0.4609075057         -0.3344
C494       C    1.3968374513   -0.0115934044    0.5436984185         -0.3334
C495       C    1.3492796819    0.0023378672    0.5410121818          0.6556
C496       C    1.3584608207   -0.0056022634    0.5628894043          0.6579
C497       C    1.3822969152   -0.0130258039    0.5641132959         -0.3362
H498       H    1.3295927121    0.0081067158    0.5412402968          0.6508
H499       H    1.3464386171   -0.0064766954    0.5795675443          0.6553
H500       H    1.3899416834   -0.0201782857    0.5818035492         -0.3338
H501       H    1.4155764026   -0.0188270580    0.5470841903         -0.3281
N502       N    1.3185358861    0.0003155544    0.4783025221         -0.3302
C503       C    1.2941423018    0.0020690715    0.4808694692         -0.3322
C504       C    1.2816716080    0.0103543389    0.4606602626          -0.335
C505       C    1.2570393838    0.0146684195    0.4614682603          0.6613
C506       C    1.2436858938    0.0114110680    0.4826734408          0.6598
C507       C    1.2559187210    0.0031452010    0.5035336229          0.6625
C508       C    1.2805466423   -0.0027901146    0.5021049552         -0.3323
C509       C    1.2455409294    0.0004189693    0.5264953069          0.6602
N510       N    1.2564604139   -0.0086960137    0.5466844229         -0.3362
N511       N    1.2789788229   -0.0179056370    0.5441544222         -0.3281
C512       C    1.2903778115   -0.0139461193    0.5226207494         -0.3271
C513       C    1.2155489963    0.0168534585    0.4794263874          0.6559
H514       H    1.2479073884    0.0214094907    0.4442842415          0.6591
H515       H    1.2268463200    0.0073128695    0.5301472557          0.6538
H516       H    1.3093936737   -0.0215511475    0.5215366001         -0.3206
H517       H    1.2917455653    0.0141653711    0.4430976968         -0.3347
C518       C    1.1959777706    0.0022448954    0.4954248515         -0.3351
N519       N    1.1712565918    0.0053557790    0.4831860954         -0.3352
N520       N    1.1761489317    0.0252960402    0.4788308180          0.6491
N521       N    1.1983144951    0.0192591225    0.4679012816          0.6562
C522       C    1.1466489698    0.0024315447    0.4887236607         -0.3338
H523       H    1.1944159203    0.0101614636    0.5145738178          0.6546
H524       H    1.2008651835   -0.0178550508    0.4969716626         -0.3187
H525       H    1.2116614390    0.0124816909    0.4594716622         -0.3365
C526       C    1.1046530094    0.0042736942    0.4762789670         -0.3329
C527       C    1.0969190401   -0.0000000000    0.5000000000          -0.334
C528       C    1.1144557804   -0.0038195192    0.5179329418         -0.3344
H529       H    1.1091022200   -0.0074805860    0.5374471682         -0.3352
H530       H    1.0912228022    0.0073999243    0.4609792961         -0.3324
H531       H    1.1347709910    0.0093357555    0.4513293832         -0.3322
H532       H    1.1528880312   -0.0052790567    0.5272528943         -0.3351
C533       C    1.1290946014    0.0054256387    0.4707491427         -0.3327
C534       C    1.1390093550   -0.0026045228    0.5122997594         -0.3343
C435       C   -0.0000000000   -0.4030809599    0.0000000000         -0.3343
C436       C    0.0218493445   -0.3919177267    0.0062773198         -0.3357
C437       C    0.0232350301   -0.3673509046    0.0104186665          0.6611
C438       C    0.0027587714   -0.3525827258    0.0093450129          0.6584
C439       C   -0.0196883462   -0.3634501551    0.0036752981          0.6591
C440       C   -0.0211459217   -0.3884004967   -0.0022802950         -0.3362
N441       N    0.0042650274   -0.3283912129    0.0134913116          0.6552
H442       H    0.0416104005   -0.3594546221    0.0154261470          0.6603
H443       H    0.0393026747   -0.4026019111    0.0084515144         -0.3344
C444       C   -0.0439596022   -0.3968374513   -0.0105599329         -0.3334
C445       C   -0.0409456637   -0.3492796819    0.0033041347          0.6556
C446       C   -0.0630040044   -0.3584608207   -0.0041180040          0.6579
C447       C   -0.0644025758   -0.3822969152   -0.0115106262         -0.3362
H448       H   -0.0410377069   -0.3295927121    0.0090767578          0.6508
H449       H   -0.0796981245   -0.3464386171   -0.0045989833          0.6553
H450       H   -0.0822565412   -0.3899416834   -0.0182440483         -0.3338
H451       H   -0.0475149759   -0.4155764026   -0.0177117517         -0.3281
N452       N    0.0216988865   -0.3185358861   -0.0001960805         -0.3302
C453       C    0.0191739944   -0.2941423018    0.0016174685         -0.3322
C454       C    0.0395729200   -0.2816716080    0.0094239736          -0.335
C455       C    0.0388668571   -0.2570393838    0.0137559048          0.6613
C456       C    0.0175907744   -0.2436858938    0.0109993993          0.6598
C457       C   -0.0034584883   -0.2559187210    0.0032276367          0.6625
C458       C   -0.0021701508   -0.2805466423   -0.0027397120         -0.3323
C459       C   -0.0264780645   -0.2455409294    0.0010435153          0.6602
N460       N   -0.0468764667   -0.2564604139   -0.0075929486         -0.3362
N461       N   -0.0445642984   -0.2789788229   -0.0168596601         -0.3281
C462       C   -0.0229432602   -0.2903778115   -0.0134089283         -0.3271
C463       C    0.0209652369   -0.2155489963    0.0163637233          0.6559
H464       H    0.0562050292   -0.2479073884    0.0200899658          0.6591
H465       H   -0.0299664652   -0.2268463200    0.0080215989          0.6538
H466       H   -0.0220387110   -0.3093936737   -0.0210374029         -0.3206
H467       H    0.0572204543   -0.2917455653    0.0128198855         -0.3347
C468       C    0.0046268032   -0.1959777706    0.0021364061         -0.3351
N469       N    0.0169355007   -0.1712565918    0.0049578799         -0.3352
N470       N    0.0217596860   -0.1761489317    0.0247899170          0.6491
N471       N    0.0325438559   -0.1983144951    0.0184969988          0.6562
C472       C    0.0113305319   -0.1466489698    0.0021650139         -0.3338
H473       H   -0.0143301967   -0.1944159203    0.0105022365          0.6546
H474       H    0.0026065389   -0.2008651835   -0.0179214849         -0.3187
H475       H    0.0408113451   -0.2116614390    0.0115227115         -0.3365
C476       C    0.0238151975   -0.1046530094    0.0037132510         -0.3329
C477       C    0.0000000000   -0.0969190401    0.0000000000          -0.334
C478       C   -0.0180180074   -0.1144557804   -0.0033956643         -0.3344
H479       H   -0.0376131242   -0.1091022200   -0.0065956394         -0.3352
H480       H    0.0391843209   -0.0912228022    0.0064779019         -0.3324
H481       H    0.0488771913   -0.1347709910    0.0081856854         -0.3322
H482       H   -0.0273697800   -0.1528880312   -0.0046350657         -0.3351
C483       C    0.0293706435   -0.1290946014    0.0047345023         -0.3327
C484       C   -0.0123577457   -0.1390093550   -0.0023138155         -0.3343
C385       C   -0.0000000000    0.0969190401   -0.0000000000         -0.3343
C386       C   -0.0035653191    0.1080822733    0.0224518841         -0.3357
C387       C   -0.0075067194    0.1326490954    0.0243323735          0.6611
C388       C   -0.0089387246    0.1474172742    0.0038780521          0.6584
C389       C   -0.0060493883    0.1365498449   -0.0190930274          0.6591
C390       C   -0.0003160577    0.1115995033   -0.0212661669         -0.3362
N391       N   -0.0128703332    0.1716087871    0.0058788156          0.6552
H392       H   -0.0102354278    0.1405453779    0.0431813323          0.6603
H393       H   -0.0035943661    0.0973980889    0.0400400907         -0.3344
C394       C    0.0051190007    0.1031625487   -0.0449194238         -0.3334
C395       C   -0.0082739096    0.1507203181   -0.0402368873          0.6556
C396       C   -0.0035978130    0.1415391793   -0.0630358490          0.6579
C397       C    0.0035690134    0.1177030848   -0.0653257103         -0.3362
H398       H   -0.0140146550    0.1704072879   -0.0396241134          0.6508
H399       H   -0.0051567312    0.1535613829   -0.0796639807          0.6553
H400       H    0.0080743752    0.1100583166   -0.0838676835         -0.3338
H401       H    0.0117837406    0.0844235974   -0.0493206098         -0.3281
N402       N    0.0028413910    0.1814641139    0.0215129407         -0.3302
C403       C    0.0007334042    0.2058576982    0.0192281145         -0.3322
C404       C   -0.0045266000    0.2183283920    0.0404269362          -0.335
C405       C   -0.0089123079    0.2429606162    0.0402545434          0.6613
C406       C   -0.0087715877    0.2563141062    0.0188011004          0.6598
C407       C   -0.0036253931    0.2440812790   -0.0030389645          0.6625
C408       C    0.0024545447    0.2194533577   -0.0024881291         -0.3323
C409       C   -0.0042654498    0.2544590706   -0.0261530641          0.6602
N410       N    0.0018183795    0.2435395861   -0.0474526026         -0.3362
N411       N    0.0112979278    0.2210211771   -0.0462880294         -0.3281
C412       C    0.0105102419    0.2096221885   -0.0244075268         -0.3271
C413       C   -0.0136842473    0.2844510037    0.0228046919          0.6559
H414       H   -0.0130842058    0.2520926116    0.0582358618          0.6591
H415       H   -0.0116169334    0.2731536800   -0.0287642477          0.6538
H416       H    0.0181920883    0.1906063263   -0.0244402337         -0.3206
H417       H   -0.0057445531    0.2082544347    0.0583569187         -0.3347
C418       C   -0.0015560877    0.3040222294    0.0048528477         -0.3351
N419       N   -0.0028551097    0.3287434082    0.0174137906         -0.3352
N420       N   -0.0219506167    0.3238510683    0.0246210143          0.6491
N421       N   -0.0143892630    0.3016855049    0.0345570634          0.6562
C422       C   -0.0007667782    0.3533510302    0.0115100082         -0.3338
H423       H   -0.0121717757    0.3055840797   -0.0129421554          0.6546
H424       H    0.0181056019    0.2991348165    0.0004010586         -0.3187
H425       H   -0.0064586064    0.2883385610    0.0419121125         -0.3365
C426       C   -0.0007806068    0.3953469906    0.0240902993         -0.3329
C427       C   -0.0000000000    0.4030809599    0.0000000000          -0.334
C428       C    0.0011725180    0.3855442196   -0.0182976591         -0.3344
H429       H    0.0019584363    0.3908977800   -0.0381367815         -0.3352
H430       H   -0.0016499273    0.4087771978    0.0396818845         -0.3324
H431       H   -0.0021626470    0.3652290090    0.0495106880         -0.3322
H432       H    0.0012619593    0.3471119688   -0.0277307798         -0.3351
C433       C   -0.0011165932    0.3709053986    0.0297288316         -0.3327
C434       C    0.0007891717    0.3609906450   -0.0125477021         -0.3343
C335       C   -0.4030809599   -0.0000000000    0.0000000000         -0.3343
C336       C   -0.3919177267    0.0056008185   -0.0220324632         -0.3357
C337       C   -0.3673509046    0.0027238721   -0.0253178940          0.6611
C338       C   -0.3525827258   -0.0066775226   -0.0070958282          0.6584
C339       C   -0.3634501551   -0.0131045094    0.0151463074          0.6591
C340       C   -0.3884004967   -0.0086972893    0.0194089388         -0.3362
N341       N   -0.3283912129   -0.0094979279   -0.0104878651          0.6552
H342       H   -0.3594546221    0.0076688389   -0.0437101859          0.6603
H343       H   -0.4026019111    0.0125271370   -0.0381994656         -0.3344
C344       C   -0.3968374513   -0.0130556011    0.0432840627         -0.3334
C345       C   -0.3492796819   -0.0235064535    0.0336884450          0.6556
C346       C   -0.3584608207   -0.0282241827    0.0564788282          0.6579
C347       C   -0.3822969152   -0.0225463781    0.0614153655         -0.3362
H348       H   -0.3295927121   -0.0285373307    0.0308561448          0.6508
H349       H   -0.3464386171   -0.0362295767    0.0711362037          0.6553
H350       H   -0.3899416834   -0.0257380547    0.0802280276         -0.3338
H351       H   -0.4155764026   -0.0086736368    0.0499614563         -0.3281
N352       N   -0.3185358861    0.0111144710   -0.0186372921         -0.3302
C353       C   -0.2941423018    0.0082749536   -0.0173719144         -0.3322
C354       C   -0.2816716080    0.0118237687   -0.0389233319          -0.335
C355       C   -0.2570393838    0.0077271580   -0.0404987472          0.6613
C356       C   -0.2436858938   -0.0006245956   -0.0207372131          0.6598
C357       C   -0.2559187210   -0.0045314471    0.0013582223          0.6625
C358       C   -0.2805466423    0.0012709929    0.0032557877         -0.3323
C359       C   -0.2455409294   -0.0142568712    0.0223364824          0.6602
N360       N   -0.2564604139   -0.0170887832    0.0443060886         -0.3362
N361       N   -0.2789788229   -0.0079210319    0.0469838492         -0.3281
C362       C   -0.2903778115    0.0000052819    0.0265742830         -0.3271
C363       C   -0.2155489963   -0.0035543770   -0.0263567639          0.6559
H364       H   -0.2479073884    0.0110034964   -0.0586645984          0.6591
H365       H   -0.2268463200   -0.0220417805    0.0218287653          0.6538
H366       H   -0.3093936737    0.0070484565    0.0296411262         -0.3206
H367       H   -0.2917455653    0.0177931376   -0.0558742705         -0.3347
C368       C   -0.1959777706    0.0004891028   -0.0050727032         -0.3351
N369       N   -0.1712565918    0.0042615087   -0.0171239978         -0.3352
N370       N   -0.1761489317   -0.0104293589   -0.0312930086          0.6491
N371       N   -0.1983144951    0.0004440032   -0.0374305274          0.6562
C372       C   -0.1466489698    0.0038458372   -0.0108755586         -0.3338
H373       H   -0.1944159203   -0.0162966108    0.0070761561          0.6546
H374       H   -0.2008651835    0.0167893164    0.0067891475         -0.3187
H375       H   -0.2116614390    0.0106362606   -0.0410512939         -0.3365
C376       C   -0.1046530094    0.0088063968   -0.0224365604         -0.3329
C377       C   -0.0969190401   -0.0000000000    0.0000000000          -0.334
C378       C   -0.1144557804   -0.0061564534    0.0172707037         -0.3344
H379       H   -0.1091022200   -0.0132773891    0.0358044762         -0.3352
H380       H   -0.0912228022    0.0141715804   -0.0371017590         -0.3324
H381       H   -0.1347709910    0.0175861646   -0.0463326244         -0.3322
H382       H   -0.1528880312   -0.0098034149    0.0259707864         -0.3351
C383       C   -0.1290946014    0.0107268130   -0.0277486161         -0.3327
C384       C   -0.1390093550   -0.0042354907    0.0118375774         -0.3343
C285       C    0.0969190401   -0.0000000000    0.0000000000         -0.3343
C286       C    0.1080822733   -0.0110780182    0.0198513504         -0.3357
C287       C    0.1326490954   -0.0091426477    0.0237660941          0.6611
C288       C    0.1474172742    0.0046283190    0.0085743075          0.6584
C289       C    0.1365498449    0.0165586399   -0.0112672196          0.6591
C290       C    0.1115995033    0.0133957370   -0.0165198057         -0.3362
N291       N    0.1716087871    0.0064816364    0.0125775331          0.6552
H292       H    0.1405453779   -0.0186508165    0.0402683311          0.6603
H293       H    0.0973980889   -0.0219286891    0.0336936333         -0.3344
C294       C    0.1031625487    0.0237468616   -0.0384713578         -0.3334
C295       C    0.1507203181    0.0313788153   -0.0265110285          0.6556
C296       C    0.1415391793    0.0417983354   -0.0473218943          0.6579
C297       C    0.1177030848    0.0375808657   -0.0535524492         -0.3362
H298       H    0.1704072879    0.0355122062   -0.0224803053          0.6508
H299       H    0.1535613829    0.0533036024   -0.0594278358          0.6553
H300       H    0.1100583166    0.0455027986   -0.0709117705         -0.3338
H301       H    0.0844235974    0.0212293093   -0.0460510099         -0.3281
N302       N    0.1814641139   -0.0155332105    0.0151525409         -0.3302
C303       C    0.2058576982   -0.0124637924    0.0146598822         -0.3322
C304       C    0.2183283920   -0.0214351118    0.0345740258          -0.335
C305       C    0.2429606162   -0.0178813688    0.0371498875          0.6613
C306       C    0.2563141062   -0.0047288801    0.0202004906          0.6598
C307       C    0.2440812790    0.0047283274   -0.0001473098          0.6625
C308       C    0.2194533577   -0.0003910432   -0.0034731342         -0.3323
C309       C    0.2544590706    0.0195211692   -0.0179192851          0.6602
N310       N    0.2435395861    0.0279072280   -0.0384219029         -0.3362
N311       N    0.2210211771    0.0197363354   -0.0433670601         -0.3281
C312       C    0.2096221885    0.0068283417   -0.0256820228         -0.3271
C313       C    0.2844510037   -0.0033426588    0.0263844505          0.6559
H314       H    0.2520926116   -0.0257187924    0.0538623779          0.6591
H315       H    0.2731536800    0.0269137369   -0.0154267900          0.6538
H316       H    0.1906063263    0.0008106330   -0.0304568543         -0.3206
H317       H    0.2082544347   -0.0315625979    0.0494199582         -0.3347
C318       C    0.3040222294   -0.0017770763    0.0047763521         -0.3351
N319       N    0.3287434082   -0.0085215578    0.0154523399         -0.3352
N320       N    0.3238510683    0.0020318058    0.0329225710          0.6491
N321       N    0.3016855049   -0.0100541485    0.0360576708          0.6562
C322       C    0.3533510302   -0.0065131089    0.0095209060         -0.3338
H323       H    0.3055840797    0.0175682003   -0.0026476116          0.6546
H324       H    0.2991348165   -0.0144789430   -0.0108781376         -0.3187
H325       H    0.2883385610   -0.0208347312    0.0369357922         -0.3365
C326       C    0.3953469906   -0.0142797135    0.0194175603         -0.3329
C327       C    0.4030809599   -0.0000000000    0.0000000000          -0.334
C328       C    0.3855442196    0.0103905057   -0.0151068368         -0.3344
H329       H    0.3908977800    0.0220378526   -0.0311862570         -0.3352
H330       H    0.4087771978   -0.0232355647    0.0322099790         -0.3324
H331       H    0.3652290090   -0.0289089976    0.0402523929         -0.3322
H332       H    0.3471119688    0.0161520134   -0.0225765620         -0.3351
C333       C    0.3709053986   -0.0175015205    0.0240571609         -0.3327
C334       C    0.3609906450    0.0071370378   -0.0103503773         -0.3343
C235       C   -0.0000000000   -0.0000000000   -0.0969190401         -0.3343
C236       C   -0.0038927217   -0.0223974400   -0.1080822733         -0.3357
C237       C   -0.0007720246   -0.0254522929   -0.1326490954          0.6611
C238       C    0.0072026025   -0.0065622101   -0.1474172742          0.6584
C239       C    0.0119029561    0.0161077133   -0.1365498449          0.6591
C240       C    0.0071814766    0.0200193941   -0.1115995033         -0.3362
N241       N    0.0102751102   -0.0097276955   -0.1716087871          0.6552
H242       H   -0.0042903083   -0.0441699524   -0.1405453779          0.6603
H243       H   -0.0095573578   -0.0390484986   -0.0973980889         -0.3344
C244       C    0.0096938868    0.0441586613   -0.1031625487         -0.3334
C245       C    0.0208506056    0.0353937413   -0.1507203181          0.6556
C246       C    0.0238046544    0.0584790642   -0.1415391793          0.6579
C247       C    0.0177646009    0.0629651113   -0.1177030848         -0.3362
H248       H    0.0260840863    0.0329560520   -0.1704072879          0.6508
H249       H    0.0306610842    0.0737077989   -0.1535613829          0.6553
H250       H    0.0195024952    0.0819672895   -0.1100583166         -0.3338
H251       H    0.0048121927    0.0504799157   -0.0844235974         -0.3281
N252       N   -0.0096507676   -0.0194356067   -0.1814641139         -0.3302
C253       C   -0.0069167822   -0.0179559570   -0.2058576982         -0.3322
C254       C   -0.0088004900   -0.0397162266   -0.2183283920          -0.335
C255       C   -0.0045950168   -0.0409724702   -0.2429606162          0.6613
C256       C    0.0022148731   -0.0206280504   -0.2563141062          0.6598
C257       C    0.0044137929    0.0017021199   -0.2440812790          0.6625
C258       C   -0.0015172078    0.0031485960   -0.2194533577         -0.3323
C259       C    0.0124998834    0.0233651394   -0.2544590706          0.6602
N260       N    0.0136366973    0.0454873222   -0.2435395861         -0.3362
N261       N    0.0042904181    0.0474533155   -0.2210211771         -0.3281
C262       C   -0.0020455345    0.0264954399   -0.2096221885         -0.3271
C263       C    0.0055674537   -0.0260060773   -0.2844510037          0.6559
H264       H   -0.0064669826   -0.0593362467   -0.2520926116          0.6591
H265       H    0.0203007951    0.0234566154   -0.2731536800          0.6538
H266       H   -0.0093033802    0.0290124838   -0.1906063263         -0.3206
H267       H   -0.0134508135   -0.0570754367   -0.2082544347         -0.3347
C268       C   -0.0000981971   -0.0050952818   -0.3040222294         -0.3351
N269       N   -0.0029342175   -0.0174006357   -0.3287434082         -0.3352
N270       N    0.0128011285   -0.0303999182   -0.3238510683          0.6491
N271       N    0.0024310750   -0.0373541349   -0.3016855049          0.6562
C272       C   -0.0029995034   -0.0111387260   -0.3533510302         -0.3338
H273       H    0.0157052299    0.0083064591   -0.3055840797          0.6546
H274       H   -0.0172610043    0.0054800912   -0.2991348165         -0.3187
H275       H   -0.0074531105   -0.0417467354   -0.2883385610         -0.3365
C276       C   -0.0070578133   -0.0230464561   -0.3953469906         -0.3329
C277       C    0.0000000000    0.0000000000   -0.4030809599          -0.334
C278       C    0.0048123056    0.0176923950   -0.3855442196         -0.3344
H279       H    0.0104892732    0.0367181797   -0.3908977800         -0.3352
H280       H   -0.0112812250   -0.0380802860   -0.4087771978         -0.3324
H281       H   -0.0139770212   -0.0475460634   -0.3652290090         -0.3322
H282       H    0.0077805446    0.0266467975   -0.3471119688         -0.3351
C283       C   -0.0085647225   -0.0284902745   -0.3709053986         -0.3327
C284       C    0.0033141468    0.0121278214   -0.3609906450         -0.3343
C185       C    0.0000000000    0.0000000000    0.4030809599         -0.3343
C186       C    0.0037110583   -0.0224282556    0.3919177267         -0.3357
C187       C    0.0076645883   -0.0242831077    0.3673509046          0.6611
C188       C    0.0089637222   -0.0038199175    0.3525827258          0.6584
C189       C    0.0059252606    0.0191319126    0.3634501551          0.6591
C190       C    0.0001779374    0.0212677711    0.3884004967         -0.3362
N191       N    0.0129082419   -0.0057951049    0.3283912129          0.6552
H192       H    0.0105156542   -0.0431139474    0.3594546221          0.6603
H193       H    0.0038543317   -0.0400159026    0.4026019111         -0.3344
C194       C   -0.0054106231    0.0448852310    0.3968374513         -0.3334
C195       C    0.0080124156    0.0402897738    0.3492796819          0.6556
C196       C    0.0031883492    0.0630578857    0.3584608207          0.6579
C197       C   -0.0039931976    0.0653011536    0.3822969152         -0.3362
H198       H    0.0137570197    0.0397142963    0.3295927121          0.6508
H199       H    0.0046392427    0.0796957911    0.3464386171          0.6553
H200       H   -0.0086188857    0.0838134755    0.3899416834         -0.3338
H201       H   -0.0121038060    0.0492430398    0.4155764026         -0.3281
N202       N   -0.0027016148   -0.0215309405    0.3185358861         -0.3302
C203       C   -0.0006085112   -0.0192324721    0.2941423018         -0.3322
C204       C    0.0047890583   -0.0403966855    0.2816716080          -0.335
C205       C    0.0091735540   -0.0401958132    0.2570393838          0.6613
C206       C    0.0088935069   -0.0187437366    0.2436858938          0.6598
C207       C    0.0036055800    0.0030624456    0.2559187210          0.6625
C208       C   -0.0024706522    0.0024721355    0.2805466423         -0.3323
C209       C    0.0040955081    0.0261802146    0.2455409294          0.6602
N210       N   -0.0021265233    0.0474397924    0.2564604139         -0.3362
N211       N   -0.0115983083    0.0462136785    0.2789788229         -0.3281
C212       C   -0.0106685355    0.0243387530    0.2903778115         -0.3271
C213       C    0.0138320644   -0.0227153383    0.2155489963          0.6559
H214       H    0.0134621441   -0.0581496579    0.2479073884          0.6591
H215       H    0.0114298782    0.0288390875    0.2268463200          0.6538
H216       H   -0.0183504324    0.0243215693    0.3093936737         -0.3206
H217       H    0.0061234324   -0.0583183799    0.2917455653         -0.3347
C218       C    0.0015875718   -0.0048426393    0.1959777706         -0.3351
N219       N    0.0029681438   -0.0173948808    0.1712565918         -0.3352
N220       N    0.0221100555   -0.0244779362    0.1761489317          0.6491
N221       N    0.0146133913   -0.0344628832    0.1983144951          0.6562
C222       C    0.0008415141   -0.0115047856    0.1466489698         -0.3338
H223       H    0.0120874658    0.0130209323    0.1944159203          0.6546
H224       H   -0.0181026153   -0.0005186374    0.2008651835         -0.3187
H225       H    0.0067306695   -0.0418692830    0.2116614390         -0.3365
C226       C    0.0009370454   -0.0240847216    0.1046530094         -0.3329
C227       C    0.0000000000    0.0000000000    0.0969190401          -0.334
C228       C   -0.0012913279    0.0182896583    0.1144557804         -0.3344
H229       H   -0.0022060753    0.0381232581    0.1091022200         -0.3352
H230       H    0.0019076075   -0.0396703321    0.0912228022         -0.3324
H231       H    0.0024841499   -0.0494955985    0.1347709910         -0.3322
H232       H   -0.0014420309    0.0277219991    0.1528880312         -0.3351
C233       C    0.0013096443   -0.0297209529    0.1290946014         -0.3327
C234       C   -0.0008706464    0.0125423122    0.1390093550         -0.3343
loop_
_geom_bond_atom_site_label_1
_geom_bond_atom_site_label_2
_geom_bond_distance
_geom_bond_site_symmetry_2
_ccdc_geom_bond_type
Zn1          O5 1.942       .   S
Zn1          O6 1.922       .   S
Zn1         O10 1.922       .   S
Zn1         O17 1.922       .   S
Zn2          O5 1.942       .   S
Zn2          O7 1.922       .   S
Zn2          O9 1.922       .   S
Zn2         O13 1.922       .   S
Zn3          O5 1.942       .   S
Zn3          O8 1.922       .   S
Zn3         O11 1.922       .   S
Zn3         O14 1.922       .   S
Zn4          O5 1.942       .   S
Zn4         O12 1.922       .   S
Zn4         O15 1.922       .   S
Zn4         O16 1.922       .   S
O6          C18 1.304       .   A
O7          C19 1.304       .   A
O8          C20 1.304       .   A
O9          C18 1.304       .   A
O10         C20 1.304       .   A
O11         C19 1.304       .   A
O12         C21 1.304       .   A
O13         C22 1.304       .   A
O14         C21 1.304       .   A
O15         C22 1.304       .   A
O16         C23 1.304       .   A
O17         C23 1.304       .   A
C18        C385 1.540       .   S
C19        C227 1.540       .   S
C20        C377 1.540       .   S
C21        C477 1.540       .   S
C22        C285 1.540       .   S
C23        C235 1.540       .   S
Zn24        O28 1.942       .   S
Zn24        O29 1.922       .   S
Zn24        O33 1.922       .   S
Zn24        O40 1.922       .   S
Zn25        O28 1.942       .   S
Zn25        O30 1.922       .   S
Zn25        O32 1.922       .   S
Zn25        O36 1.922       .   S
Zn26        O28 1.942       .   S
Zn26        O31 1.922       .   S
Zn26        O34 1.922       .   S
Zn26        O37 1.922       .   S
Zn27        O28 1.942       .   S
Zn27        O35 1.922       .   S
Zn27        O38 1.922       .   S
Zn27        O39 1.922       .   S
O29         C41 1.304       .   A
O30         C42 1.304       .   A
O31         C43 1.304       .   A
O32         C41 1.304       .   A
O33         C43 1.304       .   A
O34         C42 1.304       .   A
O35         C44 1.304       .   A
O36         C45 1.304       .   A
O37         C44 1.304       .   A
O38         C45 1.304       .   A
O39         C46 1.304       .   A
O40         C46 1.304       .   A
C41        C185 1.540   1_655   S
C42        C527 1.540       .   S
C43        C585 1.540       .   S
C44        C277 1.540   1_656   S
C45        C635 1.540       .   S
C46        C535 1.540       .   S
Zn47        O51 1.942       .   S
Zn47        O52 1.922       .   S
Zn47        O56 1.922       .   S
Zn47        O63 1.922       .   S
Zn48        O51 1.942       .   S
Zn48        O53 1.922       .   S
Zn48        O55 1.922       .   S
Zn48        O59 1.922       .   S
Zn49        O51 1.942       .   S
Zn49        O54 1.922       .   S
Zn49        O57 1.922       .   S
Zn49        O60 1.922       .   S
Zn50        O51 1.942       .   S
Zn50        O58 1.922       .   S
Zn50        O61 1.922       .   S
Zn50        O62 1.922       .   S
O52         C64 1.304       .   A
O53         C65 1.304       .   A
O54         C66 1.304       .   A
O55         C64 1.304       .   A
O56         C66 1.304       .   A
O57         C65 1.304       .   A
O58         C67 1.304       .   A
O59         C68 1.304       .   A
O60         C67 1.304       .   A
O61         C68 1.304       .   A
O62         C69 1.304       .   A
O63         C69 1.304       .   A
C64        C427 1.540   1_655   S
C65        C685 1.540       .   S
C66        C827 1.540       .   S
C67        C435 1.540   1_665   S
C68        C877 1.540       .   S
C69        C777 1.540       .   S
Zn70        O74 1.942       .   S
Zn70        O75 1.922       .   S
Zn70        O79 1.922       .   S
Zn70        O86 1.922       .   S
Zn71        O74 1.942       .   S
Zn71        O76 1.922       .   S
Zn71        O78 1.922       .   S
Zn71        O82 1.922       .   S
Zn72        O74 1.942       .   S
Zn72        O77 1.922       .   S
Zn72        O80 1.922       .   S
Zn72        O83 1.922       .   S
Zn73        O74 1.942       .   S
Zn73        O81 1.922       .   S
Zn73        O84 1.922       .   S
Zn73        O85 1.922       .   S
O75         C87 1.304       .   A
O76         C88 1.304       .   A
O77         C89 1.304       .   A
O78         C87 1.304       .   A
O79         C89 1.304       .   A
O80         C88 1.304       .   A
O81         C90 1.304       .   A
O82         C91 1.304       .   A
O83         C90 1.304       .   A
O84         C91 1.304       .   A
O85         C92 1.304       .   A
O86         C92 1.304       .   A
C87        C627 1.540       .   S
C88        C727 1.540       .   S
C89        C935 1.540       .   S
C90        C677 1.540   1_565   S
C91        C927 1.540       .   S
C92        C735 1.540   1_556   S
Zn93        O97 1.942       .   S
Zn93        O98 1.922       .   S
Zn93       O102 1.922       .   S
Zn93       O109 1.922       .   S
Zn94        O97 1.942       .   S
Zn94        O99 1.922       .   S
Zn94       O101 1.922       .   S
Zn94       O105 1.922       .   S
Zn95        O97 1.942       .   S
Zn95       O100 1.922       .   S
Zn95       O103 1.922       .   S
Zn95       O106 1.922       .   S
Zn96        O97 1.942       .   S
Zn96       O104 1.922       .   S
Zn96       O107 1.922       .   S
Zn96       O108 1.922       .   S
O98        C110 1.304       .   A
O99        C111 1.304       .   A
O100       C112 1.304       .   A
O101       C110 1.304       .   A
O102       C112 1.304       .   A
O103       C111 1.304       .   A
O104       C113 1.304       .   A
O105       C114 1.304       .   A
O106       C113 1.304       .   A
O107       C114 1.304       .   A
O108       C115 1.304       .   A
O109       C115 1.304       .   A
C110       C327 1.540   1_565   S
C111      C1027 1.540       .   S
C112      C1135 1.540       .   S
C113       C335 1.540   1_665   S
C114      C1127 1.540       .   S
C115      C1035 1.540       .   S
Zn116      O120 1.942       .   S
Zn116      O121 1.922       .   S
Zn116      O125 1.922       .   S
Zn116      O132 1.922       .   S
Zn117      O120 1.942       .   S
Zn117      O122 1.922       .   S
Zn117      O124 1.922       .   S
Zn117      O128 1.922       .   S
Zn118      O120 1.942       .   S
Zn118      O123 1.922       .   S
Zn118      O126 1.922       .   S
Zn118      O129 1.922       .   S
Zn119      O120 1.942       .   S
Zn119      O127 1.922       .   S
Zn119      O130 1.922       .   S
Zn119      O131 1.922       .   S
O121       C133 1.304       .   A
O122       C134 1.304       .   A
O123       C135 1.304       .   A
O124       C133 1.304       .   A
O125       C135 1.304       .   A
O126       C134 1.304       .   A
O127       C136 1.304       .   A
O128       C137 1.304       .   A
O129       C136 1.304       .   A
O130       C137 1.304       .   A
O131       C138 1.304       .   A
O132       C138 1.304       .   A
C133       C485 1.540   1_465   S
C134       C985 1.540       .   S
C135      C1185 1.540       .   S
C136       C577 1.540   1_565   S
C137      C1235 1.540       .   S
C138      C1077 1.540   1_556   S
Zn139      O143 1.942       .   S
Zn139      O144 1.922       .   S
Zn139      O148 1.922       .   S
Zn139      O155 1.922       .   S
Zn140      O143 1.942       .   S
Zn140      O145 1.922       .   S
Zn140      O147 1.922       .   S
Zn140      O151 1.922       .   S
Zn141      O143 1.942       .   S
Zn141      O146 1.922       .   S
Zn141      O149 1.922       .   S
Zn141      O152 1.922       .   S
Zn142      O143 1.942       .   S
Zn142      O150 1.922       .   S
Zn142      O153 1.922       .   S
Zn142      O154 1.922       .   S
O144       C156 1.304       .   A
O145       C157 1.304       .   A
O146       C158 1.304       .   A
O147       C156 1.304       .   A
O148       C158 1.304       .   A
O149       C157 1.304       .   A
O150       C159 1.304       .   A
O151       C160 1.304       .   A
O152       C159 1.304       .   A
O153       C160 1.304       .   A
O154       C161 1.304       .   A
O155       C161 1.304       .   A
C156       C785 1.540   1_455   S
C157      C1085 1.540   1_545   S
C158      C1377 1.540       .   S
C159       C835 1.540       .   S
C160      C1285 1.540       .   S
C161      C1177 1.540       .   S
Zn162      O166 1.942       .   S
Zn162      O167 1.922       .   S
Zn162      O171 1.922       .   S
Zn162      O178 1.922       .   S
Zn163      O166 1.942       .   S
Zn163      O168 1.922       .   S
Zn163      O170 1.922       .   S
Zn163      O174 1.922       .   S
Zn164      O166 1.942       .   S
Zn164      O169 1.922       .   S
Zn164      O172 1.922       .   S
Zn164      O175 1.922       .   S
Zn165      O166 1.942       .   S
Zn165      O173 1.922       .   S
Zn165      O176 1.922       .   S
Zn165      O177 1.922       .   S
O167       C179 1.304       .   A
O168       C180 1.304       .   A
O169       C181 1.304       .   A
O170       C179 1.304       .   A
O171       C181 1.304       .   A
O172       C180 1.304       .   A
O173       C182 1.304       .   A
O174       C183 1.304       .   A
O175       C182 1.304       .   A
O176       C183 1.304       .   A
O177       C184 1.304       .   A
O178       C184 1.304       .   A
C179       C885 1.540   1_455   S
C180      C1277 1.540       .   S
C181      C1335 1.540   1_556   S
C182       C977 1.540       .   S
C183      C1327 1.540       .   S
C184      C1227 1.540   1_545   S
C1335     C1336 0.022       .   A
C1335     C1340 0.022       .   A
C1336     C1337 0.021       .   A
C1336     H1343 0.018       .   A
C1337     C1338 0.022       .   A
C1337     H1342 0.018       .   A
C1338     C1339 0.022       .   A
C1338     N1341 0.021       .   A
C1339     C1340 0.022       .   A
C1339     C1345 0.022       .   A
C1340     C1344 0.022       .   A
N1341     N1352 0.021       .   A
C1344     C1347 0.021       .   A
C1344     H1351 0.017       .   A
C1345     C1346 0.021       .   A
C1345     H1348 0.018       .   A
C1346     C1347 0.021       .   A
C1346     H1349 0.018       .   A
C1347     H1350 0.018       .   A
N1352     C1353 0.021       .   A
C1353     C1354 0.021       .   A
C1353     C1358 0.022       .   A
C1354     C1355 0.021       .   A
C1354     H1367 0.018       .   A
C1355     C1356 0.022       .   A
C1355     H1364 0.018       .   A
C1356     C1357 0.022       .   A
C1356     C1363 0.025       .   A
C1357     C1358 0.022       .   A
C1357     C1359 0.022       .   A
C1358     C1362 0.022       .   A
C1359     N1360 0.021       .   A
C1359     H1365 0.017       .   A
N1360     N1361 0.021       .   A
N1361     C1362 0.021       .   A
C1362     H1366 0.018       .   A
C1363     C1368 0.025       .   A
C1363     N1371 0.018       .   A
C1363     H1375 0.018       .   A
C1368     N1369 0.024       .   A
C1368     H1373 0.018       .   A
C1368     H1374 0.018       .   A
N1369     N1370 0.018       .   A
N1369     C1372 0.022       .   A
N1370     N1371 0.022       .   A
C1372     C1383 0.022       .   A
C1372     C1384 0.022       .   A
C1376     C1377 0.022       .   A
C1376     H1380 0.018       .   A
C1376     C1383 0.021       .   A
C1377     C1378 0.022       .   A
C1378     H1379 0.018       .   A
C1378     C1384 0.022       .   A
H1381     C1383 0.018       .   A
H1382     C1384 0.018       .   A
C1285     C1286 0.022       .   A
C1285     C1290 0.022       .   A
C1286     C1287 0.021       .   A
C1286     H1293 0.018       .   A
C1287     C1288 0.022       .   A
C1287     H1292 0.018       .   A
C1288     C1289 0.022       .   A
C1288     N1291 0.021       .   A
C1289     C1290 0.022       .   A
C1289     C1295 0.022       .   A
C1290     C1294 0.022       .   A
N1291     N1302 0.021       .   A
C1294     C1297 0.021       .   A
C1294     H1301 0.017       .   A
C1295     C1296 0.021       .   A
C1295     H1298 0.018       .   A
C1296     C1297 0.021       .   A
C1296     H1299 0.018       .   A
C1297     H1300 0.018       .   A
N1302     C1303 0.021       .   A
C1303     C1304 0.021       .   A
C1303     C1308 0.022       .   A
C1304     C1305 0.021       .   A
C1304     H1317 0.018       .   A
C1305     C1306 0.022       .   A
C1305     H1314 0.018       .   A
C1306     C1307 0.022       .   A
C1306     C1313 0.025       .   A
C1307     C1308 0.022       .   A
C1307     C1309 0.022       .   A
C1308     C1312 0.022       .   A
C1309     N1310 0.021       .   A
C1309     H1315 0.017       .   A
N1310     N1311 0.021       .   A
N1311     C1312 0.021       .   A
C1312     H1316 0.018       .   A
C1313     C1318 0.025       .   A
C1313     N1321 0.018       .   A
C1313     H1325 0.018       .   A
C1318     N1319 0.024       .   A
C1318     H1323 0.018       .   A
C1318     H1324 0.018       .   A
N1319     N1320 0.018       .   A
N1319     C1322 0.022       .   A
N1320     N1321 0.022       .   A
C1322     C1333 0.022       .   A
C1322     C1334 0.022       .   A
C1326     C1327 0.022       .   A
C1326     H1330 0.018       .   A
C1326     C1333 0.021       .   A
C1327     C1328 0.022       .   A
C1328     H1329 0.018       .   A
C1328     C1334 0.022       .   A
H1331     C1333 0.018       .   A
H1332     C1334 0.018       .   A
C1235     C1236 0.022       .   A
C1235     C1240 0.022       .   A
C1236     C1237 0.021       .   A
C1236     H1243 0.018       .   A
C1237     C1238 0.022       .   A
C1237     H1242 0.018       .   A
C1238     C1239 0.022       .   A
C1238     N1241 0.021       .   A
C1239     C1240 0.022       .   A
C1239     C1245 0.022       .   A
C1240     C1244 0.022       .   A
N1241     N1252 0.021       .   A
C1244     C1247 0.021       .   A
C1244     H1251 0.017       .   A
C1245     C1246 0.021       .   A
C1245     H1248 0.018       .   A
C1246     C1247 0.021       .   A
C1246     H1249 0.018       .   A
C1247     H1250 0.018       .   A
N1252     C1253 0.021       .   A
C1253     C1254 0.021       .   A
C1253     C1258 0.022       .   A
C1254     C1255 0.021       .   A
C1254     H1267 0.018       .   A
C1255     C1256 0.022       .   A
C1255     H1264 0.018       .   A
C1256     C1257 0.022       .   A
C1256     C1263 0.025       .   A
C1257     C1258 0.022       .   A
C1257     C1259 0.022       .   A
C1258     C1262 0.022       .   A
C1259     N1260 0.021       .   A
C1259     H1265 0.017       .   A
N1260     N1261 0.021       .   A
N1261     C1262 0.021       .   A
C1262     H1266 0.018       .   A
C1263     C1268 0.025       .   A
C1263     N1271 0.018       .   A
C1263     H1275 0.018       .   A
C1268     N1269 0.024       .   A
C1268     H1273 0.018       .   A
C1268     H1274 0.018       .   A
N1269     N1270 0.018       .   A
N1269     C1272 0.022       .   A
N1270     N1271 0.022       .   A
C1272     C1283 0.022       .   A
C1272     C1284 0.022       .   A
C1276     C1277 0.022       .   A
C1276     H1280 0.018       .   A
C1276     C1283 0.021       .   A
C1277     C1278 0.022       .   A
C1278     H1279 0.018       .   A
C1278     C1284 0.022       .   A
H1281     C1283 0.018       .   A
H1282     C1284 0.018       .   A
C1185     C1186 0.022       .   A
C1185     C1190 0.022       .   A
C1186     C1187 0.021       .   A
C1186     H1193 0.018       .   A
C1187     C1188 0.022       .   A
C1187     H1192 0.018       .   A
C1188     C1189 0.022       .   A
C1188     N1191 0.021       .   A
C1189     C1190 0.022       .   A
C1189     C1195 0.022       .   A
C1190     C1194 0.022       .   A
N1191     N1202 0.021       .   A
C1194     C1197 0.021       .   A
C1194     H1201 0.017       .   A
C1195     C1196 0.021       .   A
C1195     H1198 0.018       .   A
C1196     C1197 0.021       .   A
C1196     H1199 0.018       .   A
C1197     H1200 0.018       .   A
N1202     C1203 0.021       .   A
C1203     C1204 0.021       .   A
C1203     C1208 0.022       .   A
C1204     C1205 0.021       .   A
C1204     H1217 0.018       .   A
C1205     C1206 0.022       .   A
C1205     H1214 0.018       .   A
C1206     C1207 0.022       .   A
C1206     C1213 0.025       .   A
C1207     C1208 0.022       .   A
C1207     C1209 0.022       .   A
C1208     C1212 0.022       .   A
C1209     N1210 0.021       .   A
C1209     H1215 0.017       .   A
N1210     N1211 0.021       .   A
N1211     C1212 0.021       .   A
C1212     H1216 0.018       .   A
C1213     C1218 0.025       .   A
C1213     N1221 0.018       .   A
C1213     H1225 0.018       .   A
C1218     N1219 0.024       .   A
C1218     H1223 0.018       .   A
C1218     H1224 0.018       .   A
N1219     N1220 0.018       .   A
N1219     C1222 0.022       .   A
N1220     N1221 0.022       .   A
C1222     C1233 0.022       .   A
C1222     C1234 0.022       .   A
C1226     C1227 0.022       .   A
C1226     H1230 0.018       .   A
C1226     C1233 0.021       .   A
C1227     C1228 0.022       .   A
C1228     H1229 0.018       .   A
C1228     C1234 0.022       .   A
H1231     C1233 0.018       .   A
H1232     C1234 0.018       .   A
C1135     C1136 0.022       .   A
C1135     C1140 0.022       .   A
C1136     C1137 0.021       .   A
C1136     H1143 0.018       .   A
C1137     C1138 0.022       .   A
C1137     H1142 0.018       .   A
C1138     C1139 0.022       .   A
C1138     N1141 0.021       .   A
C1139     C1140 0.022       .   A
C1139     C1145 0.022       .   A
C1140     C1144 0.022       .   A
N1141     N1152 0.021       .   A
C1144     C1147 0.021       .   A
C1144     H1151 0.017       .   A
C1145     C1146 0.021       .   A
C1145     H1148 0.018       .   A
C1146     C1147 0.021       .   A
C1146     H1149 0.018       .   A
C1147     H1150 0.018       .   A
N1152     C1153 0.021       .   A
C1153     C1154 0.021       .   A
C1153     C1158 0.022       .   A
C1154     C1155 0.021       .   A
C1154     H1167 0.018       .   A
C1155     C1156 0.022       .   A
C1155     H1164 0.018       .   A
C1156     C1157 0.022       .   A
C1156     C1163 0.025       .   A
C1157     C1158 0.022       .   A
C1157     C1159 0.022       .   A
C1158     C1162 0.022       .   A
C1159     N1160 0.021       .   A
C1159     H1165 0.017       .   A
N1160     N1161 0.021       .   A
N1161     C1162 0.021       .   A
C1162     H1166 0.018       .   A
C1163     C1168 0.025       .   A
C1163     N1171 0.018       .   A
C1163     H1175 0.018       .   A
C1168     N1169 0.024       .   A
C1168     H1173 0.018       .   A
C1168     H1174 0.018       .   A
N1169     N1170 0.018       .   A
N1169     C1172 0.022       .   A
N1170     N1171 0.022       .   A
C1172     C1183 0.022       .   A
C1172     C1184 0.022       .   A
C1176     C1177 0.022       .   A
C1176     H1180 0.018       .   A
C1176     C1183 0.021       .   A
C1177     C1178 0.022       .   A
C1178     H1179 0.018       .   A
C1178     C1184 0.022       .   A
H1181     C1183 0.018       .   A
H1182     C1184 0.018       .   A
C1085     C1086 0.022       .   A
C1085     C1090 0.022       .   A
C1086     C1087 0.021       .   A
C1086     H1093 0.018       .   A
C1087     C1088 0.022       .   A
C1087     H1092 0.018       .   A
C1088     C1089 0.022       .   A
C1088     N1091 0.021       .   A
C1089     C1090 0.022       .   A
C1089     C1095 0.022       .   A
C1090     C1094 0.022       .   A
N1091     N1102 0.021       .   A
C1094     C1097 0.021       .   A
C1094     H1101 0.017       .   A
C1095     C1096 0.021       .   A
C1095     H1098 0.018       .   A
C1096     C1097 0.021       .   A
C1096     H1099 0.018       .   A
C1097     H1100 0.018       .   A
N1102     C1103 0.021       .   A
C1103     C1104 0.021       .   A
C1103     C1108 0.022       .   A
C1104     C1105 0.021       .   A
C1104     H1117 0.018       .   A
C1105     C1106 0.022       .   A
C1105     H1114 0.018       .   A
C1106     C1107 0.022       .   A
C1106     C1113 0.025       .   A
C1107     C1108 0.022       .   A
C1107     C1109 0.022       .   A
C1108     C1112 0.022       .   A
C1109     N1110 0.021       .   A
C1109     H1115 0.017       .   A
N1110     N1111 0.021       .   A
N1111     C1112 0.021       .   A
C1112     H1116 0.018       .   A
C1113     C1118 0.025       .   A
C1113     N1121 0.018       .   A
C1113     H1125 0.018       .   A
C1118     N1119 0.024       .   A
C1118     H1123 0.018       .   A
C1118     H1124 0.018       .   A
N1119     N1120 0.018       .   A
N1119     C1122 0.022       .   A
N1120     N1121 0.022       .   A
C1122     C1133 0.022       .   A
C1122     C1134 0.022       .   A
C1126     C1127 0.022       .   A
C1126     H1130 0.018       .   A
C1126     C1133 0.021       .   A
C1127     C1128 0.022       .   A
C1128     H1129 0.018       .   A
C1128     C1134 0.022       .   A
H1131     C1133 0.018       .   A
H1132     C1134 0.018       .   A
C1035     C1036 0.022       .   A
C1035     C1040 0.022       .   A
C1036     C1037 0.021       .   A
C1036     H1043 0.018       .   A
C1037     C1038 0.022       .   A
C1037     H1042 0.018       .   A
C1038     C1039 0.022       .   A
C1038     N1041 0.021       .   A
C1039     C1040 0.022       .   A
C1039     C1045 0.022       .   A
C1040     C1044 0.022       .   A
N1041     N1052 0.021       .   A
C1044     C1047 0.021       .   A
C1044     H1051 0.017       .   A
C1045     C1046 0.021       .   A
C1045     H1048 0.018       .   A
C1046     C1047 0.021       .   A
C1046     H1049 0.018       .   A
C1047     H1050 0.018       .   A
N1052     C1053 0.021       .   A
C1053     C1054 0.021       .   A
C1053     C1058 0.022       .   A
C1054     C1055 0.021       .   A
C1054     H1067 0.018       .   A
C1055     C1056 0.022       .   A
C1055     H1064 0.018       .   A
C1056     C1057 0.022       .   A
C1056     C1063 0.025       .   A
C1057     C1058 0.022       .   A
C1057     C1059 0.022       .   A
C1058     C1062 0.022       .   A
C1059     N1060 0.021       .   A
C1059     H1065 0.017       .   A
N1060     N1061 0.021       .   A
N1061     C1062 0.021       .   A
C1062     H1066 0.018       .   A
C1063     C1068 0.025       .   A
C1063     N1071 0.018       .   A
C1063     H1075 0.018       .   A
C1068     N1069 0.024       .   A
C1068     H1073 0.018       .   A
C1068     H1074 0.018       .   A
N1069     N1070 0.018       .   A
N1069     C1072 0.022       .   A
N1070     N1071 0.022       .   A
C1072     C1083 0.022       .   A
C1072     C1084 0.022       .   A
C1076     C1077 0.022       .   A
C1076     H1080 0.018       .   A
C1076     C1083 0.021       .   A
C1077     C1078 0.022       .   A
C1078     H1079 0.018       .   A
C1078     C1084 0.022       .   A
H1081     C1083 0.018       .   A
H1082     C1084 0.018       .   A
C985       C986 0.022       .   A
C985       C990 0.022       .   A
C986       C987 0.021       .   A
C986       H993 0.018       .   A
C987       C988 0.022       .   A
C987       H992 0.018       .   A
C988       C989 0.022       .   A
C988       N991 0.021       .   A
C989       C990 0.022       .   A
C989       C995 0.022       .   A
C990       C994 0.022       .   A
N991      N1002 0.021       .   A
C994       C997 0.021       .   A
C994      H1001 0.017       .   A
C995       C996 0.021       .   A
C995       H998 0.018       .   A
C996       C997 0.021       .   A
C996       H999 0.018       .   A
C997      H1000 0.018       .   A
N1002     C1003 0.021       .   A
C1003     C1004 0.021       .   A
C1003     C1008 0.022       .   A
C1004     C1005 0.021       .   A
C1004     H1017 0.018       .   A
C1005     C1006 0.022       .   A
C1005     H1014 0.018       .   A
C1006     C1007 0.022       .   A
C1006     C1013 0.025       .   A
C1007     C1008 0.022       .   A
C1007     C1009 0.022       .   A
C1008     C1012 0.022       .   A
C1009     N1010 0.021       .   A
C1009     H1015 0.017       .   A
N1010     N1011 0.021       .   A
N1011     C1012 0.021       .   A
C1012     H1016 0.018       .   A
C1013     C1018 0.025       .   A
C1013     N1021 0.018       .   A
C1013     H1025 0.018       .   A
C1018     N1019 0.024       .   A
C1018     H1023 0.018       .   A
C1018     H1024 0.018       .   A
N1019     N1020 0.018       .   A
N1019     C1022 0.022       .   A
N1020     N1021 0.022       .   A
C1022     C1033 0.022       .   A
C1022     C1034 0.022       .   A
C1026     C1027 0.022       .   A
C1026     H1030 0.018       .   A
C1026     C1033 0.021       .   A
C1027     C1028 0.022       .   A
C1028     H1029 0.018       .   A
C1028     C1034 0.022       .   A
H1031     C1033 0.018       .   A
H1032     C1034 0.018       .   A
C935       C936 0.022       .   A
C935       C940 0.022       .   A
C936       C937 0.021       .   A
C936       H943 0.018       .   A
C937       C938 0.022       .   A
C937       H942 0.018       .   A
C938       C939 0.022       .   A
C938       N941 0.021       .   A
C939       C940 0.022       .   A
C939       C945 0.022       .   A
C940       C944 0.022       .   A
N941       N952 0.021       .   A
C944       C947 0.021       .   A
C944       H951 0.017       .   A
C945       C946 0.021       .   A
C945       H948 0.018       .   A
C946       C947 0.021       .   A
C946       H949 0.018       .   A
C947       H950 0.018       .   A
N952       C953 0.021       .   A
C953       C954 0.021       .   A
C953       C958 0.022       .   A
C954       C955 0.021       .   A
C954       H967 0.018       .   A
C955       C956 0.022       .   A
C955       H964 0.018       .   A
C956       C957 0.022       .   A
C956       C963 0.025       .   A
C957       C958 0.022       .   A
C957       C959 0.022       .   A
C958       C962 0.022       .   A
C959       N960 0.021       .   A
C959       H965 0.017       .   A
N960       N961 0.021       .   A
N961       C962 0.021       .   A
C962       H966 0.018       .   A
C963       C968 0.025       .   A
C963       N971 0.018       .   A
C963       H975 0.018       .   A
C968       N969 0.024       .   A
C968       H973 0.018       .   A
C968       H974 0.018       .   A
N969       N970 0.018       .   A
N969       C972 0.022       .   A
N970       N971 0.022       .   A
C972       C983 0.022       .   A
C972       C984 0.022       .   A
C976       C977 0.022       .   A
C976       H980 0.018       .   A
C976       C983 0.021       .   A
C977       C978 0.022       .   A
C978       H979 0.018       .   A
C978       C984 0.022       .   A
H981       C983 0.018       .   A
H982       C984 0.018       .   A
C885       C886 0.022       .   A
C885       C890 0.022       .   A
C886       C887 0.021       .   A
C886       H893 0.018       .   A
C887       C888 0.022       .   A
C887       H892 0.018       .   A
C888       C889 0.022       .   A
C888       N891 0.021       .   A
C889       C890 0.022       .   A
C889       C895 0.022       .   A
C890       C894 0.022       .   A
N891       N902 0.021       .   A
C894       C897 0.021       .   A
C894       H901 0.017       .   A
C895       C896 0.021       .   A
C895       H898 0.018       .   A
C896       C897 0.021       .   A
C896       H899 0.018       .   A
C897       H900 0.018       .   A
N902       C903 0.021       .   A
C903       C904 0.021       .   A
C903       C908 0.022       .   A
C904       C905 0.021       .   A
C904       H917 0.018       .   A
C905       C906 0.022       .   A
C905       H914 0.018       .   A
C906       C907 0.022       .   A
C906       C913 0.025       .   A
C907       C908 0.022       .   A
C907       C909 0.022       .   A
C908       C912 0.022       .   A
C909       N910 0.021       .   A
C909       H915 0.017       .   A
N910       N911 0.021       .   A
N911       C912 0.021       .   A
C912       H916 0.018       .   A
C913       C918 0.025       .   A
C913       N921 0.018       .   A
C913       H925 0.018       .   A
C918       N919 0.024       .   A
C918       H923 0.018       .   A
C918       H924 0.018       .   A
N919       N920 0.018       .   A
N919       C922 0.022       .   A
N920       N921 0.022       .   A
C922       C933 0.022       .   A
C922       C934 0.022       .   A
C926       C927 0.022       .   A
C926       H930 0.018       .   A
C926       C933 0.021       .   A
C927       C928 0.022       .   A
C928       H929 0.018       .   A
C928       C934 0.022       .   A
H931       C933 0.018       .   A
H932       C934 0.018       .   A
C835       C836 0.022       .   A
C835       C840 0.022       .   A
C836       C837 0.021       .   A
C836       H843 0.018       .   A
C837       C838 0.022       .   A
C837       H842 0.018       .   A
C838       C839 0.022       .   A
C838       N841 0.021       .   A
C839       C840 0.022       .   A
C839       C845 0.022       .   A
C840       C844 0.022       .   A
N841       N852 0.021       .   A
C844       C847 0.021       .   A
C844       H851 0.017       .   A
C845       C846 0.021       .   A
C845       H848 0.018       .   A
C846       C847 0.021       .   A
C846       H849 0.018       .   A
C847       H850 0.018       .   A
N852       C853 0.021       .   A
C853       C854 0.021       .   A
C853       C858 0.022       .   A
C854       C855 0.021       .   A
C854       H867 0.018       .   A
C855       C856 0.022       .   A
C855       H864 0.018       .   A
C856       C857 0.022       .   A
C856       C863 0.025       .   A
C857       C858 0.022       .   A
C857       C859 0.022       .   A
C858       C862 0.022       .   A
C859       N860 0.021       .   A
C859       H865 0.017       .   A
N860       N861 0.021       .   A
N861       C862 0.021       .   A
C862       H866 0.018       .   A
C863       C868 0.025       .   A
C863       N871 0.018       .   A
C863       H875 0.018       .   A
C868       N869 0.024       .   A
C868       H873 0.018       .   A
C868       H874 0.018       .   A
N869       N870 0.018       .   A
N869       C872 0.022       .   A
N870       N871 0.022       .   A
C872       C883 0.022       .   A
C872       C884 0.022       .   A
C876       C877 0.022       .   A
C876       H880 0.018       .   A
C876       C883 0.021       .   A
C877       C878 0.022       .   A
C878       H879 0.018       .   A
C878       C884 0.022       .   A
H881       C883 0.018       .   A
H882       C884 0.018       .   A
C785       C786 0.022       .   A
C785       C790 0.022       .   A
C786       C787 0.021       .   A
C786       H793 0.018       .   A
C787       C788 0.022       .   A
C787       H792 0.018       .   A
C788       C789 0.022       .   A
C788       N791 0.021       .   A
C789       C790 0.022       .   A
C789       C795 0.022       .   A
C790       C794 0.022       .   A
N791       N802 0.021       .   A
C794       C797 0.021       .   A
C794       H801 0.017       .   A
C795       C796 0.021       .   A
C795       H798 0.018       .   A
C796       C797 0.021       .   A
C796       H799 0.018       .   A
C797       H800 0.018       .   A
N802       C803 0.021       .   A
C803       C804 0.021       .   A
C803       C808 0.022       .   A
C804       C805 0.021       .   A
C804       H817 0.018       .   A
C805       C806 0.022       .   A
C805       H814 0.018       .   A
C806       C807 0.022       .   A
C806       C813 0.025       .   A
C807       C808 0.022       .   A
C807       C809 0.022       .   A
C808       C812 0.022       .   A
C809       N810 0.021       .   A
C809       H815 0.017       .   A
N810       N811 0.021       .   A
N811       C812 0.021       .   A
C812       H816 0.018       .   A
C813       C818 0.025       .   A
C813       N821 0.018       .   A
C813       H825 0.018       .   A
C818       N819 0.024       .   A
C818       H823 0.018       .   A
C818       H824 0.018       .   A
N819       N820 0.018       .   A
N819       C822 0.022       .   A
N820       N821 0.022       .   A
C822       C833 0.022       .   A
C822       C834 0.022       .   A
C826       C827 0.022       .   A
C826       H830 0.018       .   A
C826       C833 0.021       .   A
C827       C828 0.022       .   A
C828       H829 0.018       .   A
C828       C834 0.022       .   A
H831       C833 0.018       .   A
H832       C834 0.018       .   A
C735       C736 0.022       .   A
C735       C740 0.022       .   A
C736       C737 0.021       .   A
C736       H743 0.018       .   A
C737       C738 0.022       .   A
C737       H742 0.018       .   A
C738       C739 0.022       .   A
C738       N741 0.021       .   A
C739       C740 0.022       .   A
C739       C745 0.022       .   A
C740       C744 0.022       .   A
N741       N752 0.021       .   A
C744       C747 0.021       .   A
C744       H751 0.017       .   A
C745       C746 0.021       .   A
C745       H748 0.018       .   A
C746       C747 0.021       .   A
C746       H749 0.018       .   A
C747       H750 0.018       .   A
N752       C753 0.021       .   A
C753       C754 0.021       .   A
C753       C758 0.022       .   A
C754       C755 0.021       .   A
C754       H767 0.018       .   A
C755       C756 0.022       .   A
C755       H764 0.018       .   A
C756       C757 0.022       .   A
C756       C763 0.025       .   A
C757       C758 0.022       .   A
C757       C759 0.022       .   A
C758       C762 0.022       .   A
C759       N760 0.021       .   A
C759       H765 0.017       .   A
N760       N761 0.021       .   A
N761       C762 0.021       .   A
C762       H766 0.018       .   A
C763       C768 0.025       .   A
C763       N771 0.018       .   A
C763       H775 0.018       .   A
C768       N769 0.024       .   A
C768       H773 0.018       .   A
C768       H774 0.018       .   A
N769       N770 0.018       .   A
N769       C772 0.022       .   A
N770       N771 0.022       .   A
C772       C783 0.022       .   A
C772       C784 0.022       .   A
C776       C777 0.022       .   A
C776       H780 0.018       .   A
C776       C783 0.021       .   A
C777       C778 0.022       .   A
C778       H779 0.018       .   A
C778       C784 0.022       .   A
H781       C783 0.018       .   A
H782       C784 0.018       .   A
C685       C686 0.022       .   A
C685       C690 0.022       .   A
C686       C687 0.021       .   A
C686       H693 0.018       .   A
C687       C688 0.022       .   A
C687       H692 0.018       .   A
C688       C689 0.022       .   A
C688       N691 0.021       .   A
C689       C690 0.022       .   A
C689       C695 0.022       .   A
C690       C694 0.022       .   A
N691       N702 0.021       .   A
C694       C697 0.021       .   A
C694       H701 0.017       .   A
C695       C696 0.021       .   A
C695       H698 0.018       .   A
C696       C697 0.021       .   A
C696       H699 0.018       .   A
C697       H700 0.018       .   A
N702       C703 0.021       .   A
C703       C704 0.021       .   A
C703       C708 0.022       .   A
C704       C705 0.021       .   A
C704       H717 0.018       .   A
C705       C706 0.022       .   A
C705       H714 0.018       .   A
C706       C707 0.022       .   A
C706       C713 0.025       .   A
C707       C708 0.022       .   A
C707       C709 0.022       .   A
C708       C712 0.022       .   A
C709       N710 0.021       .   A
C709       H715 0.017       .   A
N710       N711 0.021       .   A
N711       C712 0.021       .   A
C712       H716 0.018       .   A
C713       C718 0.025       .   A
C713       N721 0.018       .   A
C713       H725 0.018       .   A
C718       N719 0.024       .   A
C718       H723 0.018       .   A
C718       H724 0.018       .   A
N719       N720 0.018       .   A
N719       C722 0.022       .   A
N720       N721 0.022       .   A
C722       C733 0.022       .   A
C722       C734 0.022       .   A
C726       C727 0.022       .   A
C726       H730 0.018       .   A
C726       C733 0.021       .   A
C727       C728 0.022       .   A
C728       H729 0.018       .   A
C728       C734 0.022       .   A
H731       C733 0.018       .   A
H732       C734 0.018       .   A
C635       C636 0.022       .   A
C635       C640 0.022       .   A
C636       C637 0.021       .   A
C636       H643 0.018       .   A
C637       C638 0.022       .   A
C637       H642 0.018       .   A
C638       C639 0.022       .   A
C638       N641 0.021       .   A
C639       C640 0.022       .   A
C639       C645 0.022       .   A
C640       C644 0.022       .   A
N641       N652 0.021       .   A
C644       C647 0.021       .   A
C644       H651 0.017       .   A
C645       C646 0.021       .   A
C645       H648 0.018       .   A
C646       C647 0.021       .   A
C646       H649 0.018       .   A
C647       H650 0.018       .   A
N652       C653 0.021       .   A
C653       C654 0.021       .   A
C653       C658 0.022       .   A
C654       C655 0.021       .   A
C654       H667 0.018       .   A
C655       C656 0.022       .   A
C655       H664 0.018       .   A
C656       C657 0.022       .   A
C656       C663 0.025       .   A
C657       C658 0.022       .   A
C657       C659 0.022       .   A
C658       C662 0.022       .   A
C659       N660 0.021       .   A
C659       H665 0.017       .   A
N660       N661 0.021       .   A
N661       C662 0.021       .   A
C662       H666 0.018       .   A
C663       C668 0.025       .   A
C663       N671 0.018       .   A
C663       H675 0.018       .   A
C668       N669 0.024       .   A
C668       H673 0.018       .   A
C668       H674 0.018       .   A
N669       N670 0.018       .   A
N669       C672 0.022       .   A
N670       N671 0.022       .   A
C672       C683 0.022       .   A
C672       C684 0.022       .   A
C676       C677 0.022       .   A
C676       H680 0.018       .   A
C676       C683 0.021       .   A
C677       C678 0.022       .   A
C678       H679 0.018       .   A
C678       C684 0.022       .   A
H681       C683 0.018       .   A
H682       C684 0.018       .   A
C585       C586 0.022       .   A
C585       C590 0.022       .   A
C586       C587 0.021       .   A
C586       H593 0.018       .   A
C587       C588 0.022       .   A
C587       H592 0.018       .   A
C588       C589 0.022       .   A
C588       N591 0.021       .   A
C589       C590 0.022       .   A
C589       C595 0.022       .   A
C590       C594 0.022       .   A
N591       N602 0.021       .   A
C594       C597 0.021       .   A
C594       H601 0.017       .   A
C595       C596 0.021       .   A
C595       H598 0.018       .   A
C596       C597 0.021       .   A
C596       H599 0.018       .   A
C597       H600 0.018       .   A
N602       C603 0.021       .   A
C603       C604 0.021       .   A
C603       C608 0.022       .   A
C604       C605 0.021       .   A
C604       H617 0.018       .   A
C605       C606 0.022       .   A
C605       H614 0.018       .   A
C606       C607 0.022       .   A
C606       C613 0.025       .   A
C607       C608 0.022       .   A
C607       C609 0.022       .   A
C608       C612 0.022       .   A
C609       N610 0.021       .   A
C609       H615 0.017       .   A
N610       N611 0.021       .   A
N611       C612 0.021       .   A
C612       H616 0.018       .   A
C613       C618 0.025       .   A
C613       N621 0.018       .   A
C613       H625 0.018       .   A
C618       N619 0.024       .   A
C618       H623 0.018       .   A
C618       H624 0.018       .   A
N619       N620 0.018       .   A
N619       C622 0.022       .   A
N620       N621 0.022       .   A
C622       C633 0.022       .   A
C622       C634 0.022       .   A
C626       C627 0.022       .   A
C626       H630 0.018       .   A
C626       C633 0.021       .   A
C627       C628 0.022       .   A
C628       H629 0.018       .   A
C628       C634 0.022       .   A
H631       C633 0.018       .   A
H632       C634 0.018       .   A
C535       C536 0.022       .   A
C535       C540 0.022       .   A
C536       C537 0.021       .   A
C536       H543 0.018       .   A
C537       C538 0.022       .   A
C537       H542 0.018       .   A
C538       C539 0.022       .   A
C538       N541 0.021       .   A
C539       C540 0.022       .   A
C539       C545 0.022       .   A
C540       C544 0.022       .   A
N541       N552 0.021       .   A
C544       C547 0.021       .   A
C544       H551 0.017       .   A
C545       C546 0.021       .   A
C545       H548 0.018       .   A
C546       C547 0.021       .   A
C546       H549 0.018       .   A
C547       H550 0.018       .   A
N552       C553 0.021       .   A
C553       C554 0.021       .   A
C553       C558 0.022       .   A
C554       C555 0.021       .   A
C554       H567 0.018       .   A
C555       C556 0.022       .   A
C555       H564 0.018       .   A
C556       C557 0.022       .   A
C556       C563 0.025       .   A
C557       C558 0.022       .   A
C557       C559 0.022       .   A
C558       C562 0.022       .   A
C559       N560 0.021       .   A
C559       H565 0.017       .   A
N560       N561 0.021       .   A
N561       C562 0.021       .   A
C562       H566 0.018       .   A
C563       C568 0.025       .   A
C563       N571 0.018       .   A
C563       H575 0.018       .   A
C568       N569 0.024       .   A
C568       H573 0.018       .   A
C568       H574 0.018       .   A
N569       N570 0.018       .   A
N569       C572 0.022       .   A
N570       N571 0.022       .   A
C572       C583 0.022       .   A
C572       C584 0.022       .   A
C576       C577 0.022       .   A
C576       H580 0.018       .   A
C576       C583 0.021       .   A
C577       C578 0.022       .   A
C578       H579 0.018       .   A
C578       C584 0.022       .   A
H581       C583 0.018       .   A
H582       C584 0.018       .   A
C485       C486 0.022       .   A
C485       C490 0.022       .   A
C486       C487 0.021       .   A
C486       H493 0.018       .   A
C487       C488 0.022       .   A
C487       H492 0.018       .   A
C488       C489 0.022       .   A
C488       N491 0.021       .   A
C489       C490 0.022       .   A
C489       C495 0.022       .   A
C490       C494 0.022       .   A
N491       N502 0.021       .   A
C494       C497 0.021       .   A
C494       H501 0.017       .   A
C495       C496 0.021       .   A
C495       H498 0.018       .   A
C496       C497 0.021       .   A
C496       H499 0.018       .   A
C497       H500 0.018       .   A
N502       C503 0.021       .   A
C503       C504 0.021       .   A
C503       C508 0.022       .   A
C504       C505 0.021       .   A
C504       H517 0.018       .   A
C505       C506 0.022       .   A
C505       H514 0.018       .   A
C506       C507 0.022       .   A
C506       C513 0.025       .   A
C507       C508 0.022       .   A
C507       C509 0.022       .   A
C508       C512 0.022       .   A
C509       N510 0.021       .   A
C509       H515 0.017       .   A
N510       N511 0.021       .   A
N511       C512 0.021       .   A
C512       H516 0.018       .   A
C513       C518 0.025       .   A
C513       N521 0.018       .   A
C513       H525 0.018       .   A
C518       N519 0.024       .   A
C518       H523 0.018       .   A
C518       H524 0.018       .   A
N519       N520 0.018       .   A
N519       C522 0.022       .   A
N520       N521 0.022       .   A
C522       C533 0.022       .   A
C522       C534 0.022       .   A
C526       C527 0.022       .   A
C526       H530 0.018       .   A
C526       C533 0.021       .   A
C527       C528 0.022       .   A
C528       H529 0.018       .   A
C528       C534 0.022       .   A
H531       C533 0.018       .   A
H532       C534 0.018       .   A
C435       C436 0.022       .   A
C435       C440 0.022       .   A
C436       C437 0.021       .   A
C436       H443 0.018       .   A
C437       C438 0.022       .   A
C437       H442 0.018       .   A
C438       C439 0.022       .   A
C438       N441 0.021       .   A
C439       C440 0.022       .   A
C439       C445 0.022       .   A
C440       C444 0.022       .   A
N441       N452 0.021       .   A
C444       C447 0.021       .   A
C444       H451 0.017       .   A
C445       C446 0.021       .   A
C445       H448 0.018       .   A
C446       C447 0.021       .   A
C446       H449 0.018       .   A
C447       H450 0.018       .   A
N452       C453 0.021       .   A
C453       C454 0.021       .   A
C453       C458 0.022       .   A
C454       C455 0.021       .   A
C454       H467 0.018       .   A
C455       C456 0.022       .   A
C455       H464 0.018       .   A
C456       C457 0.022       .   A
C456       C463 0.025       .   A
C457       C458 0.022       .   A
C457       C459 0.022       .   A
C458       C462 0.022       .   A
C459       N460 0.021       .   A
C459       H465 0.017       .   A
N460       N461 0.021       .   A
N461       C462 0.021       .   A
C462       H466 0.018       .   A
C463       C468 0.025       .   A
C463       N471 0.018       .   A
C463       H475 0.018       .   A
C468       N469 0.024       .   A
C468       H473 0.018       .   A
C468       H474 0.018       .   A
N469       N470 0.018       .   A
N469       C472 0.022       .   A
N470       N471 0.022       .   A
C472       C483 0.022       .   A
C472       C484 0.022       .   A
C476       C477 0.022       .   A
C476       H480 0.018       .   A
C476       C483 0.021       .   A
C477       C478 0.022       .   A
C478       H479 0.018       .   A
C478       C484 0.022       .   A
H481       C483 0.018       .   A
H482       C484 0.018       .   A
C385       C386 0.022       .   A
C385       C390 0.022       .   A
C386       C387 0.021       .   A
C386       H393 0.018       .   A
C387       C388 0.022       .   A
C387       H392 0.018       .   A
C388       C389 0.022       .   A
C388       N391 0.021       .   A
C389       C390 0.022       .   A
C389       C395 0.022       .   A
C390       C394 0.022       .   A
N391       N402 0.021       .   A
C394       C397 0.021       .   A
C394       H401 0.017       .   A
C395       C396 0.021       .   A
C395       H398 0.018       .   A
C396       C397 0.021       .   A
C396       H399 0.018       .   A
C397       H400 0.018       .   A
N402       C403 0.021       .   A
C403       C404 0.021       .   A
C403       C408 0.022       .   A
C404       C405 0.021       .   A
C404       H417 0.018       .   A
C405       C406 0.022       .   A
C405       H414 0.018       .   A
C406       C407 0.022       .   A
C406       C413 0.025       .   A
C407       C408 0.022       .   A
C407       C409 0.022       .   A
C408       C412 0.022       .   A
C409       N410 0.021       .   A
C409       H415 0.017       .   A
N410       N411 0.021       .   A
N411       C412 0.021       .   A
C412       H416 0.018       .   A
C413       C418 0.025       .   A
C413       N421 0.018       .   A
C413       H425 0.018       .   A
C418       N419 0.024       .   A
C418       H423 0.018       .   A
C418       H424 0.018       .   A
N419       N420 0.018       .   A
N419       C422 0.022       .   A
N420       N421 0.022       .   A
C422       C433 0.022       .   A
C422       C434 0.022       .   A
C426       C427 0.022       .   A
C426       H430 0.018       .   A
C426       C433 0.021       .   A
C427       C428 0.022       .   A
C428       H429 0.018       .   A
C428       C434 0.022       .   A
H431       C433 0.018       .   A
H432       C434 0.018       .   A
C335       C336 0.022       .   A
C335       C340 0.022       .   A
C336       C337 0.021       .   A
C336       H343 0.018       .   A
C337       C338 0.022       .   A
C337       H342 0.018       .   A
C338       C339 0.022       .   A
C338       N341 0.021       .   A
C339       C340 0.022       .   A
C339       C345 0.022       .   A
C340       C344 0.022       .   A
N341       N352 0.021       .   A
C344       C347 0.021       .   A
C344       H351 0.017       .   A
C345       C346 0.021       .   A
C345       H348 0.018       .   A
C346       C347 0.021       .   A
C346       H349 0.018       .   A
C347       H350 0.018       .   A
N352       C353 0.021       .   A
C353       C354 0.021       .   A
C353       C358 0.022       .   A
C354       C355 0.021       .   A
C354       H367 0.018       .   A
C355       C356 0.022       .   A
C355       H364 0.018       .   A
C356       C357 0.022       .   A
C356       C363 0.025       .   A
C357       C358 0.022       .   A
C357       C359 0.022       .   A
C358       C362 0.022       .   A
C359       N360 0.021       .   A
C359       H365 0.017       .   A
N360       N361 0.021       .   A
N361       C362 0.021       .   A
C362       H366 0.018       .   A
C363       C368 0.025       .   A
C363       N371 0.018       .   A
C363       H375 0.018       .   A
C368       N369 0.024       .   A
C368       H373 0.018       .   A
C368       H374 0.018       .   A
N369       N370 0.018       .   A
N369       C372 0.022       .   A
N370       N371 0.022       .   A
C372       C383 0.022       .   A
C372       C384 0.022       .   A
C376       C377 0.022       .   A
C376       H380 0.018       .   A
C376       C383 0.021       .   A
C377       C378 0.022       .   A
C378       H379 0.018       .   A
C378       C384 0.022       .   A
H381       C383 0.018       .   A
H382       C384 0.018       .   A
C285       C286 0.022       .   A
C285       C290 0.022       .   A
C286       C287 0.021       .   A
C286       H293 0.018       .   A
C287       C288 0.022       .   A
C287       H292 0.018       .   A
C288       C289 0.022       .   A
C288       N291 0.021       .   A
C289       C290 0.022       .   A
C289       C295 0.022       .   A
C290       C294 0.022       .   A
N291       N302 0.021       .   A
C294       C297 0.021       .   A
C294       H301 0.017       .   A
C295       C296 0.021       .   A
C295       H298 0.018       .   A
C296       C297 0.021       .   A
C296       H299 0.018       .   A
C297       H300 0.018       .   A
N302       C303 0.021       .   A
C303       C304 0.021       .   A
C303       C308 0.022       .   A
C304       C305 0.021       .   A
C304       H317 0.018       .   A
C305       C306 0.022       .   A
C305       H314 0.018       .   A
C306       C307 0.022       .   A
C306       C313 0.025       .   A
C307       C308 0.022       .   A
C307       C309 0.022       .   A
C308       C312 0.022       .   A
C309       N310 0.021       .   A
C309       H315 0.017       .   A
N310       N311 0.021       .   A
N311       C312 0.021       .   A
C312       H316 0.018       .   A
C313       C318 0.025       .   A
C313       N321 0.018       .   A
C313       H325 0.018       .   A
C318       N319 0.024       .   A
C318       H323 0.018       .   A
C318       H324 0.018       .   A
N319       N320 0.018       .   A
N319       C322 0.022       .   A
N320       N321 0.022       .   A
C322       C333 0.022       .   A
C322       C334 0.022       .   A
C326       C327 0.022       .   A
C326       H330 0.018       .   A
C326       C333 0.021       .   A
C327       C328 0.022       .   A
C328       H329 0.018       .   A
C328       C334 0.022       .   A
H331       C333 0.018       .   A
H332       C334 0.018       .   A
C235       C236 0.022       .   A
C235       C240 0.022       .   A
C236       C237 0.021       .   A
C236       H243 0.018       .   A
C237       C238 0.022       .   A
C237       H242 0.018       .   A
C238       C239 0.022       .   A
C238       N241 0.021       .   A
C239       C240 0.022       .   A
C239       C245 0.022       .   A
C240       C244 0.022       .   A
N241       N252 0.021       .   A
C244       C247 0.021       .   A
C244       H251 0.017       .   A
C245       C246 0.021       .   A
C245       H248 0.018       .   A
C246       C247 0.021       .   A
C246       H249 0.018       .   A
C247       H250 0.018       .   A
N252       C253 0.021       .   A
C253       C254 0.021       .   A
C253       C258 0.022       .   A
C254       C255 0.021       .   A
C254       H267 0.018       .   A
C255       C256 0.022       .   A
C255       H264 0.018       .   A
C256       C257 0.022       .   A
C256       C263 0.025       .   A
C257       C258 0.022       .   A
C257       C259 0.022       .   A
C258       C262 0.022       .   A
C259       N260 0.021       .   A
C259       H265 0.017       .   A
N260       N261 0.021       .   A
N261       C262 0.021       .   A
C262       H266 0.018       .   A
C263       C268 0.025       .   A
C263       N271 0.018       .   A
C263       H275 0.018       .   A
C268       N269 0.024       .   A
C268       H273 0.018       .   A
C268       H274 0.018       .   A
N269       N270 0.018       .   A
N269       C272 0.022       .   A
N270       N271 0.022       .   A
C272       C283 0.022       .   A
C272       C284 0.022       .   A
C276       C277 0.022       .   A
C276       H280 0.018       .   A
C276       C283 0.021       .   A
C277       C278 0.022       .   A
C278       H279 0.018       .   A
C278       C284 0.022       .   A
H281       C283 0.018       .   A
H282       C284 0.018       .   A
C185       C186 0.022       .   A
C185       C190 0.022       .   A
C186       C187 0.021       .   A
C186       H193 0.018       .   A
C187       C188 0.022       .   A
C187       H192 0.018       .   A
C188       C189 0.022       .   A
C188       N191 0.021       .   A
C189       C190 0.022       .   A
C189       C195 0.022       .   A
C190       C194 0.022       .   A
N191       N202 0.021       .   A
C194       C197 0.021       .   A
C194       H201 0.017       .   A
C195       C196 0.021       .   A
C195       H198 0.018       .   A
C196       C197 0.021       .   A
C196       H199 0.018       .   A
C197       H200 0.018       .   A
N202       C203 0.021       .   A
C203       C204 0.021       .   A
C203       C208 0.022       .   A
C204       C205 0.021       .   A
C204       H217 0.018       .   A
C205       C206 0.022       .   A
C205       H214 0.018       .   A
C206       C207 0.022       .   A
C206       C213 0.025       .   A
C207       C208 0.022       .   A
C207       C209 0.022       .   A
C208       C212 0.022       .   A
C209       N210 0.021       .   A
C209       H215 0.017       .   A
N210       N211 0.021       .   A
N211       C212 0.021       .   A
C212       H216 0.018       .   A
C213       C218 0.025       .   A
C213       N221 0.018       .   A
C213       H225 0.018       .   A
C218       N219 0.024       .   A
C218       H223 0.018       .   A
C218       H224 0.018       .   A
N219       N220 0.018       .   A
N219       C222 0.022       .   A
N220       N221 0.022       .   A
C222       C233 0.022       .   A
C222       C234 0.022       .   A
C226       C227 0.022       .   A
C226       H230 0.018       .   A
C226       C233 0.021       .   A
C227       C228 0.022       .   A
C228       H229 0.018       .   A
C228       C234 0.022       .   A
H231       C233 0.018       .   A
H232       C234 0.018       .   A
