data_pcu_v1-6c_Zn_1_Ch_1-81_fer_tobacco
_audit_creation_date              2021-02-03
_audit_creation_method            'tobacco_3.0'
_symmetry_space_group_name_H-M    'P1'
_symmetry_Int_Tables_number       1
_symmetry_cell_setting            triclinic
loop_
_symmetry_equiv_pos_as_xyz
  x,y,z
_cell_length_a                    43.301807566810766
_cell_length_b                    43.301807566810766
_cell_length_c                    43.301807566810766
_cell_angle_alpha                 90.0
_cell_angle_beta                  90.0
_cell_angle_gamma                 90.0
loop_
_atom_site_label
_atom_site_type_symbol
_atom_site_fract_x
_atom_site_fract_y
_atom_site_fract_z
_atom_site_charge
Zn1       Zn   -0.0258926835   -0.0258926835    0.0258926835          1.4972
Zn2       Zn    0.0258926835    0.0258926835    0.0258926835          1.4936
Zn3       Zn    0.0258926835   -0.0258926835   -0.0258926835          1.4911
Zn4       Zn   -0.0258926835    0.0258926835   -0.0258926835          1.4948
O5         O    0.0000000000    0.0000000000    0.0000000000         -2.2657
O6         O   -0.0190292287   -0.0190292287    0.0692026538          -1.172
O7         O    0.0692026538    0.0190292287    0.0190292287         -1.1702
O8         O    0.0190292287   -0.0692026538   -0.0190292287         -1.1654
O9         O    0.0190292287    0.0190292287    0.0692026538         -1.1722
O10        O   -0.0190292287   -0.0692026538    0.0190292287         -1.1681
O11        O    0.0692026538   -0.0190292287   -0.0190292287          -1.174
O12        O   -0.0190292287    0.0190292287   -0.0692026538         -1.1679
O13        O    0.0190292287    0.0692026538    0.0190292287         -1.1755
O14        O    0.0190292287   -0.0190292287   -0.0692026538         -1.1694
O15        O   -0.0190292287    0.0692026538   -0.0190292287          -1.174
O16        O   -0.0692026538    0.0190292287   -0.0190292287         -1.1731
O17        O   -0.0692026538   -0.0190292287    0.0190292287          -1.171
C18        C   -0.0000000000   -0.0000000000    0.0827401950          0.3469
C19        C    0.0827401950   -0.0000000000   -0.0000000000          0.3518
C20        C   -0.0000000000   -0.0827401950    0.0000000000          0.3414
C21        C    0.0000000000    0.0000000000   -0.0827401950          0.3452
C22        C    0.0000000000    0.0827401950   -0.0000000000          0.3565
C23        C   -0.0827401950    0.0000000000    0.0000000000           0.347
Zn24      Zn    0.9741073165    0.0258926835    0.4741073165          1.4972
Zn25      Zn    1.0258926835   -0.0258926835    0.4741073165          1.4936
Zn26      Zn    1.0258926835    0.0258926835    0.5258926835          1.4911
Zn27      Zn    0.9741073165   -0.0258926835    0.5258926835          1.4948
O28        O    1.0000000000    0.0000000000    0.5000000000         -2.2657
O29        O    0.9809707713    0.0190292287    0.4307973462          -1.172
O30        O    1.0692026538   -0.0190292287    0.4809707713         -1.1702
O31        O    1.0190292287    0.0692026538    0.5190292287         -1.1654
O32        O    1.0190292287   -0.0190292287    0.4307973462         -1.1722
O33        O    0.9809707713    0.0692026538    0.4809707713         -1.1681
O34        O    1.0692026538    0.0190292287    0.5190292287          -1.174
O35        O    0.9809707713   -0.0190292287    0.5692026538         -1.1679
O36        O    1.0190292287   -0.0692026538    0.4809707713         -1.1755
O37        O    1.0190292287    0.0190292287    0.5692026538         -1.1694
O38        O    0.9809707713   -0.0692026538    0.5190292287          -1.174
O39        O    0.9307973462   -0.0190292287    0.5190292287         -1.1731
O40        O    0.9307973462    0.0190292287    0.4809707713          -1.171
C41        C    1.0000000000    0.0000000000    0.4172598050          0.3469
C42        C    1.0827401950    0.0000000000    0.5000000000          0.3518
C43        C    1.0000000000    0.0827401950    0.5000000000          0.3414
C44        C    1.0000000000    0.0000000000    0.5827401950          0.3452
C45        C    1.0000000000   -0.0827401950    0.5000000000          0.3565
C46        C    0.9172598050    0.0000000000    0.5000000000           0.347
Zn47      Zn    1.0258926835    0.4741073165   -0.0258926835          1.4972
Zn48      Zn    0.9741073165    0.5258926835   -0.0258926835          1.4936
Zn49      Zn    0.9741073165    0.4741073165    0.0258926835          1.4911
Zn50      Zn    1.0258926835    0.5258926835    0.0258926835          1.4948
O51        O    1.0000000000    0.5000000000    0.0000000000         -2.2657
O52        O    1.0190292287    0.4809707713   -0.0692026538          -1.172
O53        O    0.9307973462    0.5190292287   -0.0190292287         -1.1702
O54        O    0.9809707713    0.4307973462    0.0190292287         -1.1654
O55        O    0.9809707713    0.5190292287   -0.0692026538         -1.1722
O56        O    1.0190292287    0.4307973462   -0.0190292287         -1.1681
O57        O    0.9307973462    0.4809707713    0.0190292287          -1.174
O58        O    1.0190292287    0.5190292287    0.0692026538         -1.1679
O59        O    0.9809707713    0.5692026538   -0.0190292287         -1.1755
O60        O    0.9809707713    0.4809707713    0.0692026538         -1.1694
O61        O    1.0190292287    0.5692026538    0.0190292287          -1.174
O62        O    1.0692026538    0.5190292287    0.0190292287         -1.1731
O63        O    1.0692026538    0.4809707713   -0.0190292287          -1.171
C64        C    1.0000000000    0.5000000000   -0.0827401950          0.3469
C65        C    0.9172598050    0.5000000000    0.0000000000          0.3518
C66        C    1.0000000000    0.4172598050    0.0000000000          0.3414
C67        C    1.0000000000    0.5000000000    0.0827401950          0.3452
C68        C    1.0000000000    0.5827401950    0.0000000000          0.3565
C69        C    1.0827401950    0.5000000000    0.0000000000           0.347
Zn70      Zn    0.9741073165    0.4741073165    0.5258926835          1.4972
Zn71      Zn    1.0258926835    0.4741073165    0.4741073165          1.4936
Zn72      Zn    0.9741073165    0.5258926835    0.4741073165          1.4911
Zn73      Zn    1.0258926835    0.5258926835    0.5258926835          1.4948
O74        O    1.0000000000    0.5000000000    0.5000000000         -2.2657
O75        O    0.9809707713    0.4307973462    0.5190292287          -1.172
O76        O    1.0190292287    0.4809707713    0.4307973462         -1.1702
O77        O    0.9307973462    0.5190292287    0.4809707713         -1.1654
O78        O    1.0190292287    0.4307973462    0.4809707713         -1.1722
O79        O    0.9307973462    0.4809707713    0.5190292287         -1.1681
O80        O    0.9809707713    0.5190292287    0.4307973462          -1.174
O81        O    1.0190292287    0.5692026538    0.5190292287         -1.1679
O82        O    1.0692026538    0.4809707713    0.4809707713         -1.1755
O83        O    0.9809707713    0.5692026538    0.4809707713         -1.1694
O84        O    1.0692026538    0.5190292287    0.5190292287          -1.174
O85        O    1.0190292287    0.5190292287    0.5692026538         -1.1731
O86        O    0.9809707713    0.4809707713    0.5692026538          -1.171
C87        C    1.0000000000    0.4172598050    0.5000000000          0.3469
C88        C    1.0000000000    0.5000000000    0.4172598050          0.3518
C89        C    0.9172598050    0.5000000000    0.5000000000          0.3414
C90        C    1.0000000000    0.5827401950    0.5000000000          0.3452
C91        C    1.0827401950    0.5000000000    0.5000000000          0.3565
C92        C    1.0000000000    0.5000000000    0.5827401950           0.347
Zn93      Zn    0.5258926835    1.0258926835   -0.0258926835          1.4972
Zn94      Zn    0.4741073165    1.0258926835    0.0258926835          1.4936
Zn95      Zn    0.4741073165    0.9741073165   -0.0258926835          1.4911
Zn96      Zn    0.5258926835    0.9741073165    0.0258926835          1.4948
O97        O    0.5000000000    1.0000000000    0.0000000000         -2.2657
O98        O    0.5190292287    1.0692026538   -0.0190292287          -1.172
O99        O    0.4307973462    1.0190292287    0.0190292287         -1.1702
O100       O    0.4809707713    0.9809707713   -0.0692026538         -1.1654
O101       O    0.4809707713    1.0692026538    0.0190292287         -1.1722
O102       O    0.5190292287    1.0190292287   -0.0692026538         -1.1681
O103       O    0.4307973462    0.9809707713   -0.0190292287          -1.174
O104       O    0.5190292287    0.9307973462    0.0190292287         -1.1679
O105       O    0.4809707713    1.0190292287    0.0692026538         -1.1755
O106       O    0.4809707713    0.9307973462   -0.0190292287         -1.1694
O107       O    0.5190292287    0.9809707713    0.0692026538          -1.174
O108       O    0.5692026538    0.9809707713    0.0190292287         -1.1731
O109       O    0.5692026538    1.0190292287   -0.0190292287          -1.171
C110       C    0.5000000000    1.0827401950    0.0000000000          0.3469
C111       C    0.4172598050    1.0000000000    0.0000000000          0.3518
C112       C    0.5000000000    1.0000000000   -0.0827401950          0.3414
C113       C    0.5000000000    0.9172598050    0.0000000000          0.3452
C114       C    0.5000000000    1.0000000000    0.0827401950          0.3565
C115       C    0.5827401950    1.0000000000    0.0000000000           0.347
Zn116     Zn    0.4741073165    1.0258926835    0.5258926835          1.4972
Zn117     Zn    0.4741073165    0.9741073165    0.4741073165          1.4936
Zn118     Zn    0.5258926835    1.0258926835    0.4741073165          1.4911
Zn119     Zn    0.5258926835    0.9741073165    0.5258926835          1.4948
O120       O    0.5000000000    1.0000000000    0.5000000000         -2.2657
O121       O    0.4307973462    1.0190292287    0.5190292287          -1.172
O122       O    0.4809707713    0.9809707713    0.4307973462         -1.1702
O123       O    0.5190292287    1.0692026538    0.4809707713         -1.1654
O124       O    0.4307973462    0.9809707713    0.4809707713         -1.1722
O125       O    0.4809707713    1.0692026538    0.5190292287         -1.1681
O126       O    0.5190292287    1.0190292287    0.4307973462          -1.174
O127       O    0.5692026538    0.9809707713    0.5190292287         -1.1679
O128       O    0.4809707713    0.9307973462    0.4809707713         -1.1755
O129       O    0.5692026538    1.0190292287    0.4809707713         -1.1694
O130       O    0.5190292287    0.9307973462    0.5190292287          -1.174
O131       O    0.5190292287    0.9809707713    0.5692026538         -1.1731
O132       O    0.4809707713    1.0190292287    0.5692026538          -1.171
C133       C    0.4172598050    1.0000000000    0.5000000000          0.3469
C134       C    0.5000000000    1.0000000000    0.4172598050          0.3518
C135       C    0.5000000000    1.0827401950    0.5000000000          0.3414
C136       C    0.5827401950    1.0000000000    0.5000000000          0.3452
C137       C    0.5000000000    0.9172598050    0.5000000000          0.3565
C138       C    0.5000000000    1.0000000000    0.5827401950           0.347
Zn139     Zn    0.5258926835    0.5258926835   -0.0258926835          1.4972
Zn140     Zn    0.4741073165    0.5258926835    0.0258926835          1.4936
Zn141     Zn    0.4741073165    0.4741073165   -0.0258926835          1.4911
Zn142     Zn    0.5258926835    0.4741073165    0.0258926835          1.4948
O143       O    0.5000000000    0.5000000000    0.0000000000         -2.2657
O144       O    0.5190292287    0.5692026538   -0.0190292287          -1.172
O145       O    0.4307973462    0.5190292287    0.0190292287         -1.1702
O146       O    0.4809707713    0.4809707713   -0.0692026538         -1.1654
O147       O    0.4809707713    0.5692026538    0.0190292287         -1.1722
O148       O    0.5190292287    0.5190292287   -0.0692026538         -1.1681
O149       O    0.4307973462    0.4809707713   -0.0190292287          -1.174
O150       O    0.5190292287    0.4307973462    0.0190292287         -1.1679
O151       O    0.4809707713    0.5190292287    0.0692026538         -1.1755
O152       O    0.4809707713    0.4307973462   -0.0190292287         -1.1694
O153       O    0.5190292287    0.4809707713    0.0692026538          -1.174
O154       O    0.5692026538    0.4809707713    0.0190292287         -1.1731
O155       O    0.5692026538    0.5190292287   -0.0190292287          -1.171
C156       C    0.5000000000    0.5827401950    0.0000000000          0.3469
C157       C    0.4172598050    0.5000000000    0.0000000000          0.3518
C158       C    0.5000000000    0.5000000000   -0.0827401950          0.3414
C159       C    0.5000000000    0.4172598050    0.0000000000          0.3452
C160       C    0.5000000000    0.5000000000    0.0827401950          0.3565
C161       C    0.5827401950    0.5000000000    0.0000000000           0.347
Zn162     Zn    0.5258926835    0.4741073165    0.4741073165          1.4972
Zn163     Zn    0.4741073165    0.5258926835    0.4741073165          1.4936
Zn164     Zn    0.4741073165    0.4741073165    0.5258926835          1.4911
Zn165     Zn    0.5258926835    0.5258926835    0.5258926835          1.4948
O166       O    0.5000000000    0.5000000000    0.5000000000         -2.2657
O167       O    0.5190292287    0.4809707713    0.4307973462          -1.172
O168       O    0.4307973462    0.5190292287    0.4809707713         -1.1702
O169       O    0.4809707713    0.4307973462    0.5190292287         -1.1654
O170       O    0.4809707713    0.5190292287    0.4307973462         -1.1722
O171       O    0.5190292287    0.4307973462    0.4809707713         -1.1681
O172       O    0.4307973462    0.4809707713    0.5190292287          -1.174
O173       O    0.5190292287    0.5190292287    0.5692026538         -1.1679
O174       O    0.4809707713    0.5692026538    0.4809707713         -1.1755
O175       O    0.4809707713    0.4809707713    0.5692026538         -1.1694
O176       O    0.5190292287    0.5692026538    0.5190292287          -1.174
O177       O    0.5692026538    0.5190292287    0.5190292287         -1.1731
O178       O    0.5692026538    0.4809707713    0.4809707713          -1.171
C179       C    0.5000000000    0.5000000000    0.4172598050          0.3469
C180       C    0.4172598050    0.5000000000    0.5000000000          0.3518
C181       C    0.5000000000    0.4172598050    0.5000000000          0.3414
C182       C    0.5000000000    0.5000000000    0.5827401950          0.3452
C183       C    0.5000000000    0.5827401950    0.5000000000          0.3565
C184       C    0.5827401950    0.5000000000    0.5000000000           0.347
C898       C    0.5000000000    0.5000000000   -0.3816954698          0.5714
C899       C    0.4956933498    0.4763603381   -0.3620445620           0.568
C900       C    0.4947334205    0.4798434518   -0.3313506354          0.5685
C901       C    0.4977524229    0.5089704835   -0.3186237065          0.5723
C902       C    0.5024196472    0.5331502454   -0.3389010695          -0.424
C903       C    0.5033277780    0.5281656308   -0.3694929281         -0.4246
C904       C    0.4911663073    0.5160166101   -0.2881261440          0.5682
C905       C    0.5037875798    0.4260756147   -0.3186782332         -0.4247
H906       H    0.4927160950    0.4532522733   -0.3712533271          0.5645
H907       H    0.5070488709    0.5478016145   -0.3846825425         -0.4216
H908       H    0.5054118649    0.5564878706   -0.3301130086         -0.4205
C909       C    0.5051910536    0.5029797479   -0.2633423896         -0.4193
C910       C    0.4968002316    0.5071435741   -0.2310687759         -0.4249
H911       H    0.5231190564    0.4857431778   -0.2670371434         -0.4048
H912       H    0.4726800650    0.5324466323   -0.2838549906          0.5532
C913       C    0.4898477024    0.5064692789   -0.2034651115          0.5703
C914       C    0.4798965997    0.5003955758   -0.1709005676          0.5632
O915       O    0.4941667931    0.5188676273   -0.1462210247         -0.4234
C916       C    0.4868411314    0.4680212844   -0.1262956515            0.57
C917       C    0.4873468064    0.4670893282   -0.1615235775           0.569
H918       H    0.5104588238    0.4606850798   -0.1695090477         -0.4121
H919       H    0.4630620584    0.4661129885   -0.1180569060          0.5503
H920       H    0.5005924197    0.4494666870   -0.1161827237         -0.4185
H921       H    0.4705944426    0.4506677698   -0.1707876366          0.5541
H922       H    0.5250480086    0.4982085203   -0.1157117876         -0.3966
C923       C    0.5000000000    0.5000000000   -0.1183045302         -0.4178
H924       H    0.4549443980    0.5039908176   -0.1694366516          0.5423
H925       H    0.4923273860    0.4160230502   -0.3387858994          0.5646
H926       H    0.5284685271    0.4289699624   -0.3232604206         -0.4041
H927       H    0.5006931622    0.4105890176   -0.2989786369         -0.4269
O928       O    0.4902277355    0.4557955566   -0.3111746223          0.5649
C867       C    0.5000000000    0.5000000000    0.3816954698          0.5714
C868       C    0.5235292518    0.5048739267    0.3620445620           0.568
C869       C    0.5200240596    0.5057498112    0.3313506354          0.5685
C870       C    0.4909780579    0.5020311913    0.3186237065          0.5723
C871       C    0.4669175340    0.4967838057    0.3389010695          -0.424
C872       C    0.4719225470    0.4959958151    0.3694929281         -0.4246
C873       C    0.4837755765    0.5084459462    0.2881261440          0.5682
C874       C    0.5739940935    0.4979913604    0.3186782332         -0.4247
H875       H    0.5465590315    0.5084060578    0.3712533271          0.5645
H876       H    0.4523817331    0.4918035627    0.3846825425         -0.4216
H877       H    0.4436586201    0.4932311952    0.3301130086         -0.4205
C878       C    0.4971459562    0.4947387864    0.2633423896         -0.4193
C879       C    0.4927815392    0.5030270435    0.2310687759         -0.4249
H880       H    0.5148087005    0.4772304999    0.2670371434         -0.4048
H881       H    0.4669057215    0.5265317079    0.2838549906          0.5532
C882       C    0.4932884345    0.5099937783    0.2034651115          0.5703
C883       C    0.4991210618    0.5200880723    0.1709005676          0.5632
O884       O    0.4809975441    0.5053777627    0.1462210247         -0.4234
C885       C    0.5316530021    0.5139241348    0.1262956515            0.57
C886       C    0.5325968500    0.5134410192    0.1615235775           0.569
H887       H    0.5395550786    0.4904897055    0.1695090477         -0.4121
H888       H    0.5329888712    0.5377422238    0.1180569060          0.5503
H889       H    0.5505329446    0.5006230527    0.1161827237         -0.4185
H890       H    0.5486107728    0.5305834680    0.1707876366          0.5541
H891       H    0.5023933537    0.4750023202    0.1157117876         -0.3966
C892       C    0.5000000000    0.5000000000    0.1183045302         -0.4178
H893       H    0.4949267718    0.5449465933    0.1694366516          0.5423
H894       H    0.5837681385    0.5096899987    0.3387858994          0.5646
H895       H    0.5716941474    0.4732479439    0.3232604206         -0.4041
H896       H    0.5894017922    0.5014573280    0.2989786369         -0.4269
O897       O    0.5439566400    0.5108325330    0.3111746223          0.5649
C836       C    0.5000000000    0.6183045302    0.5000000000          0.5714
C837       C    0.5084390607    0.6379554380    0.4775019311           0.568
C838       C    0.5087647337    0.6686493646    0.4811001922          0.5685
C839       C    0.5006176758    0.6813762935    0.5092271151          0.5723
C840       C    0.4917278000    0.6610989305    0.5321926105          -0.424
C841       C    0.4917199299    0.6305070719    0.5271259525         -0.4246
C842       C    0.5058468083    0.7118738560    0.5173314961          0.5682
C843       C    0.5094096651    0.6813217668    0.4265791671         -0.4247
H844       H    0.5154754166    0.6287466729    0.4552907538          0.5645
H845       H    0.4845685921    0.6153174575    0.5457881270         -0.4216
H846       H    0.4846359246    0.6698869914    0.5546270354         -0.4205
C847       C    0.4943620459    0.7366576104    0.5020098279         -0.4193
C848       C    0.5018793678    0.7689312241    0.5075984962         -0.4249
H849       H    0.4797824760    0.7329628566    0.4818616574         -0.4048
H850       H    0.5211190625    0.7161450094    0.5367851600          0.5532
C851       C    0.5088410631    0.7965348885    0.5081704541          0.5703
C852       C    0.5197131225    0.8290994324    0.5039618158          0.5632
O853       O    0.5023874318    0.8537789753    0.5196039239         -0.4234
C854       C    0.5186322976    0.8737043485    0.4708687186            0.57
C855       C    0.5183002875    0.8384764225    0.4698617336           0.569
H856       H    0.4966942247    0.8304909523    0.4594522282         -0.4121
H857       H    0.5423720047    0.8819430940    0.4732165294          0.5503
H858       H    0.5083971866    0.8838172763    0.4501657353         -0.4185
H859       H    0.5377042514    0.8292123634    0.4566785830          0.5541
H860       H    0.4756690346    0.8842882124    0.4937858018         -0.3966
C861       C    0.5000000000    0.8816954698    0.5000000000         -0.4178
H862       H    0.5436292628    0.8305633484    0.5119340403          0.5423
H863       H    0.5224738716    0.6612141006    0.4187231755          0.5646
H864       H    0.4846072093    0.6767395794    0.4250414430         -0.4041
H865       H    0.5152069228    0.7010213631    0.4118889692         -0.4269
O866       O    0.5174722076    0.6888253777    0.4582357578          0.5649
C805       C    0.5000000000    1.1183045302    0.5000000000          0.5714
C806       C    0.5076766854    1.1379554380    0.5227694830           0.568
C807       C    0.5051504350    1.1686493646    0.5201865379          0.5685
C808       C    0.4936904043    1.1813762935    0.4932390697          0.5723
C809       C    0.4860677322    1.1610989305    0.4698224359          -0.424
C810       C    0.4892755994    1.1305070719    0.4737442560         -0.4246
C811       C    0.4845162961    1.2118738560    0.4902624007          0.5682
C812       C    0.5391040075    1.1813217668    0.5628493206         -0.4247
H813       H    0.5162592088    1.1287466729    0.5444302076          0.5645
H814       H    0.4830249073    1.1153174575    0.4547614417         -0.4216
H815       H    0.4773871612    1.1698869914    0.4479536041         -0.4205
C816       C    0.5030994947    1.2366576104    0.4948795442         -0.4193
C817       C    0.4937417311    1.2689312241    0.4952985919         -0.4249
H818       H    0.5271312569    1.2329628566    0.5012816561         -0.4048
H819       H    0.4603865642    1.2161450094    0.4848362770          0.5532
C820       C    0.4879847969    1.2965348885    0.4992546059          0.5703
C821       C    0.4822182244    1.3290994324    0.5093867801          0.5632
O822       O    0.4857613914    1.3537789753    0.4863151293         -0.4234
C823       C    0.5039683767    1.3737043485    0.5343517985            0.57
C824       C    0.5048620362    1.3384764225    0.5349224316           0.569
H825       H    0.5281853717    1.3304909523    0.5293365773         -0.4121
H826       H    0.4840858283    1.3819430940    0.5475339901          0.5503
H827       H    0.5249836710    1.3838172763    0.5439292939         -0.4185
H828       H    0.4981542664    1.3292123634    0.5574016464          0.5541
H829       H    0.5227840711    1.3842882124    0.4894407273         -0.3966
C830       C    0.5000000000    1.3816954698    0.5000000000         -0.4178
H831       H    0.4586447061    1.3305633484    0.5183213961          0.5423
H832       H    0.5339433311    1.1612141006    0.5771935708          0.5646
H833       H    0.5592982970    1.1767395794    0.5483677087         -0.4041
H834       H    0.5438941405    1.2010213631    0.5778980659         -0.4269
O835       O    0.5128506100    1.1888253777    0.5434095818          0.5649
C774       C    0.5000000000    0.8816954698    0.0000000000          0.5714
C775       C    0.5052828831    0.8620445620    0.0234408191           0.568
C776       C    0.5060976019    0.8313506354    0.0199209072          0.5685
C777       C    0.5018737918    0.8186237065   -0.0090559418          0.5723
C778       C    0.4962082558    0.8389010695   -0.0330214496          -0.424
C779       C    0.4955075327    0.8694929281   -0.0280034748         -0.4246
C780       C    0.5081621633    0.7881261440   -0.0163690261          0.5682
C781       C    0.4992800627    0.8186782332    0.0740178505         -0.4247
H782       H    0.5092154773    0.8712533271    0.0464056052          0.5645
H783       H    0.4909756679    0.8846825425   -0.0474683300         -0.4216
H784       H    0.4922511956    0.8301130086   -0.0562149787         -0.4205
C785       C    0.4946898889    0.7633423896   -0.0027620020         -0.4193
C786       C    0.5029008955    0.7310687759   -0.0072700738         -0.4249
H787       H    0.4774918034    0.7670371434    0.0152029219         -0.4048
H788       H    0.5259514423    0.7838549906   -0.0335512360          0.5532
C789       C    0.5098754003    0.7034651115   -0.0068845614          0.5703
C790       C    0.5200697227    0.6709005676   -0.0012285819          0.5632
O791       O    0.5050460734    0.6462210247   -0.0190932136         -0.4234
C792       C    0.5144731714    0.6262956515    0.0314057540            0.57
C793       C    0.5140065634    0.6615235775    0.0323578709           0.569
H794       H    0.4911798870    0.6695090477    0.0397146768         -0.4121
H795       H    0.5383109098    0.6180569060    0.0323266959          0.5503
H796       H    0.5015028465    0.6161827237    0.0505144349         -0.4185
H797       H    0.5314252505    0.6707876366    0.0480708786          0.5541
H798       H    0.4750477835    0.6157117876    0.0028282548         -0.3966
C799       C    0.5000000000    0.6183045302    0.0000000000         -0.4178
H800       H    0.5448514433    0.6694366516   -0.0058550768          0.5423
H801       H    0.5111471148    0.8387858994    0.0835867150          0.5646
H802       H    0.4745003504    0.8232604206    0.0721490897         -0.4041
H803       H    0.5030137864    0.7989786369    0.0893628633         -0.4269
O804       O    0.5115962712    0.8111746223    0.0437613581          0.5649
C743       C    0.5000000000    1.3816954698    0.0000000000          0.5714
C744       C    0.4977571786    1.3620445620    0.0239238501           0.568
C745       C    0.4996227787    1.3313506354    0.0208298103          0.5685
C746       C    0.5045884208    1.3186237065   -0.0080291700          0.5723
C747       C    0.5066300625    1.3389010695   -0.0325704733          -0.424
C748       C    0.5044085162    1.3694929281   -0.0280168137         -0.4246
C749       C    0.5128338101    1.2881261440   -0.0130330059          0.5682
C750       C    0.4763735213    1.3186782332    0.0701494833         -0.4247
H751       H    0.4943781146    1.3712533271    0.0469765859          0.5645
H752       H    0.5061330111    1.3846825425   -0.0479277279         -0.4216
H753       H    0.5100567649    1.3301130086   -0.0558482702         -0.4205
C754       C    0.4958074892    1.2633423896   -0.0042718600         -0.4193
C755       C    0.5050114081    1.2310687759   -0.0060128992         -0.4249
H756       H    0.4738881047    1.2670371434    0.0074777451         -0.4048
H757       H    0.5350726691    1.2838549906   -0.0238552022          0.5532
C758       C    0.5115229430    1.2034651115   -0.0034846092          0.5703
C759       C    0.5194621334    1.1709005676    0.0050525781          0.5632
O760       O    0.5107155489    1.1462210247   -0.0165888720         -0.4234
C761       C    0.5040261156    1.1262956515    0.0343450792            0.57
C762       C    0.5032873763    1.1615235775    0.0351056802           0.569
H763       H    0.4793046067    1.1695090477    0.0350250002         -0.4121
H764       H    0.5264044483    1.1180569060    0.0426092266          0.5503
H765       H    0.4857717735    1.1161827237    0.0484925175         -0.4185
H766       H    0.5149779488    1.1707876366    0.0554438166          0.5541
H767       H    0.4754000030    1.1157117876   -0.0050450255         -0.3966
C768       C    0.5000000000    1.1183045302    0.0000000000         -0.4178
H769       H    0.5444573996    1.1694366516    0.0083350774          0.5423
H770       H    0.4846902557    1.3387858994    0.0829253208          0.5646
H771       H    0.4533933835    1.3232604206    0.0606922283         -0.4041
H772       H    0.4751671464    1.2989786369    0.0858960629         -0.4269
O773       O    0.4974612498    1.3111746223    0.0452004947          0.5649
C712       C    0.5000000000    1.0000000000   -0.3816954698          0.5714
C713       C    0.5236396619    0.9956933498   -0.3620445620           0.568
C714       C    0.5201565482    0.9947334205   -0.3313506354          0.5685
C715       C    0.4910295165    0.9977524229   -0.3186237065          0.5723
C716       C    0.4668497546    1.0024196472   -0.3389010695          -0.424
C717       C    0.4718343692    1.0033277780   -0.3694929281         -0.4246
C718       C    0.4839833899    0.9911663073   -0.2881261440          0.5682
C719       C    0.5739243853    1.0037875798   -0.3186782332         -0.4247
H720       H    0.5467477267    0.9927160950   -0.3712533271          0.5645
H721       H    0.4521983855    1.0070488709   -0.3846825425         -0.4216
H722       H    0.4435121294    1.0054118649   -0.3301130086         -0.4205
C723       C    0.4970202521    1.0051910536   -0.2633423896         -0.4193
C724       C    0.4928564259    0.9968002316   -0.2310687759         -0.4249
H725       H    0.5142568222    1.0231190564   -0.2670371434         -0.4048
H726       H    0.4675533677    0.9726800650   -0.2838549906          0.5532
C727       C    0.4935307211    0.9898477024   -0.2034651115          0.5703
C728       C    0.4996044242    0.9798965997   -0.1709005676          0.5632
O729       O    0.4811323727    0.9941667931   -0.1462210247         -0.4234
C730       C    0.5319787156    0.9868411314   -0.1262956515            0.57
C731       C    0.5329106718    0.9873468064   -0.1615235775           0.569
H732       H    0.5393149202    1.0104588238   -0.1695090477         -0.4121
H733       H    0.5338870115    0.9630620584   -0.1180569060          0.5503
H734       H    0.5505333130    1.0005924197   -0.1161827237         -0.4185
H735       H    0.5493322302    0.9705944426   -0.1707876366          0.5541
H736       H    0.5017914797    1.0250480086   -0.1157117876         -0.3966
C737       C    0.5000000000    1.0000000000   -0.1183045302         -0.4178
H738       H    0.4960091824    0.9549443980   -0.1694366516          0.5423
H739       H    0.5839769498    0.9923273860   -0.3387858994          0.5646
H740       H    0.5710300376    1.0284685271   -0.3232604206         -0.4041
H741       H    0.5894109824    1.0006931622   -0.2989786369         -0.4269
O742       O    0.5442044434    0.9902277355   -0.3111746223          0.5649
C681       C    0.5000000000    1.0000000000    0.1183045302          0.5714
C682       C    0.5235292518    0.9951260733    0.1379554380           0.568
C683       C    0.5200240596    0.9942501888    0.1686493646          0.5685
C684       C    0.4909780579    0.9979688087    0.1813762935          0.5723
C685       C    0.4669175340    1.0032161943    0.1610989305          -0.424
C686       C    0.4719225470    1.0040041849    0.1305070719         -0.4246
C687       C    0.4837755765    0.9915540538    0.2118738560          0.5682
C688       C    0.5739940935    1.0020086396    0.1813217668         -0.4247
H689       H    0.5465590315    0.9915939422    0.1287466729          0.5645
H690       H    0.4523817331    1.0081964373    0.1153174575         -0.4216
H691       H    0.4436586201    1.0067688048    0.1698869914         -0.4205
C692       C    0.4971459562    1.0052612136    0.2366576104         -0.4193
C693       C    0.4927815392    0.9969729565    0.2689312241         -0.4249
H694       H    0.5148087005    1.0227695001    0.2329628566         -0.4048
H695       H    0.4669057215    0.9734682921    0.2161450094          0.5532
C696       C    0.4932884345    0.9900062217    0.2965348885          0.5703
C697       C    0.4991210618    0.9799119277    0.3290994324          0.5632
O698       O    0.4809975441    0.9946222373    0.3537789753         -0.4234
C699       C    0.5316530021    0.9860758652    0.3737043485            0.57
C700       C    0.5325968500    0.9865589808    0.3384764225           0.569
H701       H    0.5395550786    1.0095102945    0.3304909523         -0.4121
H702       H    0.5329888712    0.9622577762    0.3819430940          0.5503
H703       H    0.5505329446    0.9993769473    0.3838172763         -0.4185
H704       H    0.5486107728    0.9694165320    0.3292123634          0.5541
H705       H    0.5023933537    1.0249976798    0.3842882124         -0.3966
C706       C    0.5000000000    1.0000000000    0.3816954698         -0.4178
H707       H    0.4949267718    0.9550534067    0.3305633484          0.5423
H708       H    0.5837681385    0.9903100013    0.1612141006          0.5646
H709       H    0.5716941474    1.0267520561    0.1767395794         -0.4041
H710       H    0.5894017922    0.9985426720    0.2010213631         -0.4269
O711       O    0.5439566400    0.9891674670    0.1888253777          0.5649
C650       C    0.8816954698    0.5000000000    0.5000000000          0.5714
C651       C    0.8620445620    0.5217300228    0.4897439306           0.568
C652       C    0.8313506354    0.5194562605    0.4925516967          0.5685
C653       C    0.8186237065    0.4940133627    0.5070484999          0.5723
C654       C    0.8389010695    0.4716342824    0.5173256898          -0.424
C655       C    0.8694929281    0.4751591988    0.5136861776         -0.4246
C656       C    0.7881261440    0.4921166098    0.5165050927          0.5682
C657       C    0.8186782332    0.5579103096    0.4538962415         -0.4247
H658       H    0.8712533271    0.5422540521    0.4787161962          0.5645
H659       H    0.8846825425    0.4570257245    0.5220882904         -0.4216
H660       H    0.8301130086    0.4509148683    0.5284748600         -0.4205
C661       C    0.7633423896    0.4945557200    0.4975128831         -0.4193
C662       C    0.7310687759    0.4960531615    0.5067595587         -0.4249
H663       H    0.7670371434    0.4981383147    0.4729023641         -0.4048
H664       H    0.7838549906    0.4895147864    0.5411001593          0.5532
C665       C    0.7034651115    0.5006478400    0.5120208577          0.5703
C666       C    0.6709005676    0.5113784292    0.5165781341          0.5632
O667       O    0.6462210247    0.4880519153    0.5157244057         -0.4234
C668       C    0.6262956515    0.5336632287    0.4920891779            0.57
C669       C    0.6615235775    0.5341267863    0.4911355722           0.569
H670       H    0.6695090477    0.5258835528    0.4686138305         -0.4121
H671       H    0.6180569060    0.5490543750    0.5103154919          0.5503
H672       H    0.6161827237    0.5407484648    0.4701080395         -0.4185
H673       H    0.6707876366    0.5572304716    0.4952011597          0.5541
H674       H    0.6157117876    0.4868789631    0.4785885422         -0.3966
C675       C    0.6183045302    0.5000000000    0.5000000000         -0.4178
H676       H    0.6694366516    0.5229769032    0.5389614657          0.5423
H677       H    0.8387858994    0.5727547600    0.4573650144          0.5646
H678       H    0.8232604206    0.5411924269    0.4355104098         -0.4041
H679       H    0.7989786369    0.5723048159    0.4473994502         -0.4269
O680       O    0.8111746223    0.5416340927    0.4822198904          0.5649
C619       C    1.1183045302    0.5000000000    0.5000000000          0.5714
C620       C    1.1379554380    0.5078879058    0.4773028241           0.568
C621       C    1.1686493646    0.5053377663    0.4798621862          0.5685
C622       C    1.1813762935    0.4936278607    0.5067020159          0.5723
C623       C    1.1610989305    0.4857879531    0.5300468166          -0.424
C624       C    1.1305070719    0.4890321195    0.5261549701         -0.4246
C625       C    1.2118738560    0.4844264922    0.5095933196          0.5682
C626       C    1.1813217668    0.5396862542    0.4375167084         -0.4247
H627       H    1.1287466729    0.5166713091    0.4557227748          0.5645
H628       H    1.1153174575    0.4826053275    0.5450788897         -0.4216
H629       H    1.1698869914    0.4769045730    0.5518340530         -0.4205
C630       C    1.2366576104    0.5030517867    0.5051490322         -0.4193
C631       C    1.2689312241    0.4936983203    0.5046430595         -0.4249
H632       H    1.2329628566    0.5271419938    0.4989704764         -0.4048
H633       H    1.2161450094    0.4602473875    0.5147950191          0.5532
C634       C    1.2965348885    0.4879783901    0.5006337284          0.5703
C635       C    1.3290994324    0.4823062047    0.4904484142          0.5632
O636       O    1.3537789753    0.4856348595    0.5135519888         -0.4234
C637       C    1.3737043485    0.5042873688    0.4656865545            0.57
C638       C    1.3384764225    0.5051862915    0.4651242490           0.569
H639       H    1.3304909523    0.5284567220    0.4709265599         -0.4121
H640       H    1.3819430940    0.4845281546    0.4523202026          0.5503
H641       H    1.3838172763    0.5253907408    0.4563047260         -0.4185
H642       H    1.3292123634    0.4986876661    0.4425836824          0.5541
H643       H    1.3842882124    0.5226849812    0.5107705043         -0.3966
C644       C    1.3816954698    0.5000000000    0.5000000000         -0.4178
H645       H    1.3305633484    0.4588167156    0.4812951617          0.5423
H646       H    1.1612141006    0.5346590733    0.4231251294          0.5646
H647       H    1.1767395794    0.5597451231    0.4521853208         -0.4041
H648       H    1.2010213631    0.5446159987    0.4225131178         -0.4269
O649       O    1.1888253777    0.5132533748    0.4567116872          0.5649
C588       C    0.6183045302    0.5000000000    0.0000000000          0.5714
C589       C    0.6379554380    0.4778215348    0.0092464337           0.568
C590       C    0.6686493646    0.4814292135    0.0094418844          0.5685
C591       C    0.6813762935    0.5092434077    0.0002838853          0.5723
C592       C    0.6610989305    0.5318727055   -0.0094299577          -0.424
C593       C    0.6305070719    0.5268090715   -0.0092547581         -0.4246
C594       C    0.7118738560    0.5175314321    0.0052167822          0.5682
C595       C    0.6813217668    0.4269670899    0.0120563070         -0.4247
H596       H    0.6287466729    0.4558790926    0.0170807127          0.5645
H597       H    0.6153174575    0.5452006739   -0.0170757140         -0.4216
H598       H    0.6698869914    0.5540362437   -0.0173277862         -0.4205
C599       C    0.7366576104    0.5018048093   -0.0057068904         -0.4193
C600       C    0.7689312241    0.5076614387    0.0016035975         -0.4249
H601       H    0.7329628566    0.4811430165   -0.0195489621         -0.4048
H602       H    0.7161450094    0.5375241992    0.0197761793          0.5532
C603       C    0.7965348885    0.5084845579    0.0085400817          0.5703
C604       C    0.8290994324    0.5046714886    0.0195571056          0.5632
O605       O    0.8537789753    0.5196773844    0.0016775588         -0.4234
C606       C    0.8737043485    0.4715609478    0.0196726811            0.57
C607       C    0.8384764225    0.4705426244    0.0193772714           0.569
H608       H    0.8304909523    0.4593592620   -0.0018385754         -0.4121
H609       H    0.8819430940    0.4747649708    0.0433120581          0.5503
H610       H    0.8838172763    0.4505016752    0.0101922776         -0.4185
H611       H    0.8292123634    0.4580691710    0.0392448892          0.5541
H612       H    0.8842882124    0.4929107514   -0.0240905519         -0.3966
C613       C    0.8816954698    0.5000000000    0.0000000000         -0.4178
H614       H    0.8305633484    0.5135026275    0.0431695835          0.5423
H615       H    0.6612141006    0.4195882539    0.0253958300          0.5646
H616       H    0.6767395794    0.4245342262   -0.0126743942         -0.4041
H617       H    0.7010213631    0.4124959460    0.0183805546         -0.4269
O618       O    0.6888253777    0.4588943202    0.0189697932          0.5649
C557       C    1.1183045302    0.5000000000    0.0000000000          0.5714
C558       C    1.1379554380    0.5153519314   -0.0184851036           0.568
C559       C    1.1686493646    0.5120657738   -0.0169835331          0.5685
C560       C    1.1813762935    0.4916810565    0.0040393508          0.5723
C561       C    1.1610989305    0.4761467808    0.0231477298          -0.424
C562       C    1.1305070719    0.4805504657    0.0206420076         -0.4246
C563       C    1.2118738560    0.4820502501    0.0035174428          0.5682
C564       C    1.1813217668    0.5590908953   -0.0445805630         -0.4247
H565       H    1.1287466729    0.5311503335   -0.0356098574          0.5645
H566       H    1.1153174575    0.4678909646    0.0361066582         -0.4216
H567       H    1.1698869914    0.4601820471    0.0404314040         -0.4205
C568       C    1.2366576104    0.5010505688    0.0058925580         -0.4193
C569       C    1.2689312241    0.4924696425    0.0021360909         -0.4249
H570       H    1.2329628566    0.5257768389    0.0085616774         -0.4048
H571       H    1.2161450094    0.4575835731   -0.0000975954          0.5532
C572       C    1.2965348885    0.4885206602   -0.0036256689          0.5703
C573       C    1.3290994324    0.4867838997   -0.0151538073          0.5632
O574       O    1.3537789753    0.4817924257    0.0076483919         -0.4234
C575       C    1.3737043485    0.5160572497   -0.0306261131            0.57
C576       C    1.3384764225    0.5170963388   -0.0308371663           0.569
H577       H    1.3304909523    0.5368501901   -0.0172369786         -0.4121
H578       H    1.3819430940    0.5022459345   -0.0500769094          0.5503
H579       H    1.3838172763    0.5391108901   -0.0320047646         -0.4185
H580       H    1.3292123634    0.5189218884   -0.0542246981          0.5541
H581       H    1.3842882124    0.5174620120    0.0180468909         -0.3966
C582       C    1.3816954698    0.5000000000    0.0000000000         -0.4178
H583       H    1.3305633484    0.4680009653   -0.0319686671          0.5423
H584       H    1.1612141006    0.5594343356   -0.0598210401          0.5646
H585       H    1.1767395794    0.5727257651   -0.0238051753         -0.4041
H586       H    1.2010213631    0.5689727017   -0.0568996544         -0.4269
O587       O    1.1888253777    0.5276027433   -0.0358834019          0.5649
C526       C    1.0000000000    0.5000000000   -0.1183045302          0.5714
C527       C    1.0235292518    0.5048739267   -0.1379554380           0.568
C528       C    1.0200240596    0.5057498112   -0.1686493646          0.5685
C529       C    0.9909780579    0.5020311913   -0.1813762935          0.5723
C530       C    0.9669175340    0.4967838057   -0.1610989305          -0.424
C531       C    0.9719225470    0.4959958151   -0.1305070719         -0.4246
C532       C    0.9837755765    0.5084459462   -0.2118738560          0.5682
C533       C    1.0739940935    0.4979913604   -0.1813217668         -0.4247
H534       H    1.0465590315    0.5084060578   -0.1287466729          0.5645
H535       H    0.9523817331    0.4918035627   -0.1153174575         -0.4216
H536       H    0.9436586201    0.4932311952   -0.1698869914         -0.4205
C537       C    0.9971459562    0.4947387864   -0.2366576104         -0.4193
C538       C    0.9927815392    0.5030270435   -0.2689312241         -0.4249
H539       H    1.0148087005    0.4772304999   -0.2329628566         -0.4048
H540       H    0.9669057215    0.5265317079   -0.2161450094          0.5532
C541       C    0.9932884345    0.5099937783   -0.2965348885          0.5703
C542       C    0.9991210618    0.5200880723   -0.3290994324          0.5632
O543       O    0.9809975441    0.5053777627   -0.3537789753         -0.4234
C544       C    1.0316530021    0.5139241348   -0.3737043485            0.57
C545       C    1.0325968500    0.5134410192   -0.3384764225           0.569
H546       H    1.0395550786    0.4904897055   -0.3304909523         -0.4121
H547       H    1.0329888712    0.5377422238   -0.3819430940          0.5503
H548       H    1.0505329446    0.5006230527   -0.3838172763         -0.4185
H549       H    1.0486107728    0.5305834680   -0.3292123634          0.5541
H550       H    1.0023933537    0.4750023202   -0.3842882124         -0.3966
C551       C    1.0000000000    0.5000000000   -0.3816954698         -0.4178
H552       H    0.9949267718    0.5449465933   -0.3305633484          0.5423
H553       H    1.0837681385    0.5096899987   -0.1612141006          0.5646
H554       H    1.0716941474    0.4732479439   -0.1767395794         -0.4041
H555       H    1.0894017922    0.5014573280   -0.2010213631         -0.4269
O556       O    1.0439566400    0.5108325330   -0.1888253777          0.5649
C495       C    1.0000000000    0.5000000000    0.3816954698          0.5714
C496       C    1.0235292518    0.5048739267    0.3620445620           0.568
C497       C    1.0200240596    0.5057498112    0.3313506354          0.5685
C498       C    0.9909780579    0.5020311913    0.3186237065          0.5723
C499       C    0.9669175340    0.4967838057    0.3389010695          -0.424
C500       C    0.9719225470    0.4959958151    0.3694929281         -0.4246
C501       C    0.9837755765    0.5084459462    0.2881261440          0.5682
C502       C    1.0739940935    0.4979913604    0.3186782332         -0.4247
H503       H    1.0465590315    0.5084060578    0.3712533271          0.5645
H504       H    0.9523817331    0.4918035627    0.3846825425         -0.4216
H505       H    0.9436586201    0.4932311952    0.3301130086         -0.4205
C506       C    0.9971459562    0.4947387864    0.2633423896         -0.4193
C507       C    0.9927815392    0.5030270435    0.2310687759         -0.4249
H508       H    1.0148087005    0.4772304999    0.2670371434         -0.4048
H509       H    0.9669057215    0.5265317079    0.2838549906          0.5532
C510       C    0.9932884345    0.5099937783    0.2034651115          0.5703
C511       C    0.9991210618    0.5200880723    0.1709005676          0.5632
O512       O    0.9809975441    0.5053777627    0.1462210247         -0.4234
C513       C    1.0316530021    0.5139241348    0.1262956515            0.57
C514       C    1.0325968500    0.5134410192    0.1615235775           0.569
H515       H    1.0395550786    0.4904897055    0.1695090477         -0.4121
H516       H    1.0329888712    0.5377422238    0.1180569060          0.5503
H517       H    1.0505329446    0.5006230527    0.1161827237         -0.4185
H518       H    1.0486107728    0.5305834680    0.1707876366          0.5541
H519       H    1.0023933537    0.4750023202    0.1157117876         -0.3966
C520       C    1.0000000000    0.5000000000    0.1183045302         -0.4178
H521       H    0.9949267718    0.5449465933    0.1694366516          0.5423
H522       H    1.0837681385    0.5096899987    0.3387858994          0.5646
H523       H    1.0716941474    0.4732479439    0.3232604206         -0.4041
H524       H    1.0894017922    0.5014573280    0.2989786369         -0.4269
O525       O    1.0439566400    0.5108325330    0.3111746223          0.5649
C464       C    1.0000000000   -0.1183045302    0.5000000000          0.5714
C465       C    1.0235292518   -0.1379554380    0.4951260733           0.568
C466       C    1.0200240596   -0.1686493646    0.4942501888          0.5685
C467       C    0.9909780579   -0.1813762935    0.4979688087          0.5723
C468       C    0.9669175340   -0.1610989305    0.5032161943          -0.424
C469       C    0.9719225470   -0.1305070719    0.5040041849         -0.4246
C470       C    0.9837755765   -0.2118738560    0.4915540538          0.5682
C471       C    1.0739940935   -0.1813217668    0.5020086396         -0.4247
H472       H    1.0465590315   -0.1287466729    0.4915939422          0.5645
H473       H    0.9523817331   -0.1153174575    0.5081964373         -0.4216
H474       H    0.9436586201   -0.1698869914    0.5067688048         -0.4205
C475       C    0.9971459562   -0.2366576104    0.5052612136         -0.4193
C476       C    0.9927815392   -0.2689312241    0.4969729565         -0.4249
H477       H    1.0148087005   -0.2329628566    0.5227695001         -0.4048
H478       H    0.9669057215   -0.2161450094    0.4734682921          0.5532
C479       C    0.9932884345   -0.2965348885    0.4900062217          0.5703
C480       C    0.9991210618   -0.3290994324    0.4799119277          0.5632
O481       O    0.9809975441   -0.3537789753    0.4946222373         -0.4234
C482       C    1.0316530021   -0.3737043485    0.4860758652            0.57
C483       C    1.0325968500   -0.3384764225    0.4865589808           0.569
H484       H    1.0395550786   -0.3304909523    0.5095102945         -0.4121
H485       H    1.0329888712   -0.3819430940    0.4622577762          0.5503
H486       H    1.0505329446   -0.3838172763    0.4993769473         -0.4185
H487       H    1.0486107728   -0.3292123634    0.4694165320          0.5541
H488       H    1.0023933537   -0.3842882124    0.5249976798         -0.3966
C489       C    1.0000000000   -0.3816954698    0.5000000000         -0.4178
H490       H    0.9949267718   -0.3305633484    0.4550534067          0.5423
H491       H    1.0837681385   -0.1612141006    0.4903100013          0.5646
H492       H    1.0716941474   -0.1767395794    0.5267520561         -0.4041
H493       H    1.0894017922   -0.2010213631    0.4985426720         -0.4269
O494       O    1.0439566400   -0.1888253777    0.4891674670          0.5649
C433       C    1.0000000000    0.3816954698    0.5000000000          0.5714
C434       C    0.9886035015    0.3620445620    0.4788457882           0.568
C435       C    0.9887661406    0.3313506354    0.4824550949          0.5685
C436       C    1.0006325284    0.3186237065    0.5092261089          0.5723
C437       C    1.0125387690    0.3389010695    0.5307826693          -0.424
C438       C    1.0118631729    0.3694929281    0.5257612498         -0.4246
C439       C    0.9965443050    0.2881261440    0.5179617398          0.5682
C440       C    0.9807732689    0.3186782332    0.4285192801         -0.4247
H441       H    0.9786355859    0.3712533271    0.4577866487          0.5645
H442       H    1.0214663277    0.3846825425    0.5432883090         -0.4216
H443       H    1.0225918086    0.3301130086    0.5520555279         -0.4205
C444       C    1.0058575206    0.2633423896    0.5012310107         -0.4193
C445       C    0.9991626966    0.2310687759    0.5077825504         -0.4249
H446       H    1.0175862609    0.2670371434    0.4793004547         -0.4048
H447       H    0.9840355347    0.2838549906    0.5392975653          0.5532
C448       C    0.9923417644    0.2034651115    0.5092882800          0.5703
C449       C    0.9810013915    0.1709005676    0.5065845318          0.5632
O450       O    1.0002785758    0.1462210247    0.5197467987         -0.4234
C451       C    0.9776087197    0.1262956515    0.4736480619            0.57
C452       C    0.9778018730    0.1615235775    0.4726054972           0.569
H453       H    0.9978064549    0.1695090477    0.4593768748         -0.4121
H454       H    0.9544026241    0.1180569060    0.4791764463          0.5503
H455       H    0.9849578679    0.1161827237    0.4517537468         -0.4185
H456       H    0.9567970730    0.1707876366    0.4621600364          0.5541
H457       H    1.0232704499    0.1157117876    0.4905608106         -0.3966
C458       C    1.0000000000    0.1183045302    0.5000000000         -0.4178
H459       H    0.9583790997    0.1694366516    0.5177097305          0.5423
H460       H    0.9667688235    0.3387858994    0.4224971871          0.5646
H461       H    1.0051416667    0.3232604206    0.4236502355         -0.4041
H462       H    0.9730475633    0.2989786369    0.4147452617         -0.4269
O463       O    0.9770542661    0.3111746223    0.4609740693          0.5649
C402       C    0.6183045302   -0.0000000000    0.5000000000          0.5714
C403       C    0.6379554380   -0.0239682816    0.4982963775           0.568
C404       C    0.6686493646   -0.0208330232    0.5000918443          0.5685
C405       C    0.6813762935    0.0081304402    0.5044064860          0.5723
C406       C    0.6610989305    0.0327114890    0.5058950784          -0.424
C407       C    0.6305070719    0.0281089669    0.5037766179         -0.4246
C408       C    0.7118738560    0.0133186474    0.5125371271          0.5682
C409       C    0.6813217668   -0.0706636370    0.4779588814         -0.4247
H410       H    0.6287466729   -0.0470912514    0.4954371877          0.5645
H411       H    0.6153174575    0.0480536600    0.5050523940         -0.4216
H412       H    0.6698869914    0.0560605354    0.5087968273         -0.4205
C413       C    0.7366576104    0.0041763854    0.4957123737         -0.4193
C414       C    0.7689312241    0.0061242038    0.5048747612         -0.4249
H415       H    0.7329628566   -0.0080637424    0.4740630803         -0.4048
H416       H    0.7161450094    0.0246387943    0.5345266941          0.5532
C417       C    0.7965348885    0.0037431577    0.5114415684          0.5703
C418       C    0.8290994324   -0.0046131198    0.5195709557          0.5632
O419       O    0.8537789753    0.0168259208    0.5103393448         -0.4234
C420       C    0.8737043485   -0.0342457280    0.5047983527            0.57
C421       C    0.8384764225   -0.0350227684    0.5040769252           0.569
H422       H    0.8304909523   -0.0354820657    0.4800984183         -0.4121
H423       H    0.8819430940   -0.0420039465    0.5273570750          0.5503
H424       H    0.8838172763   -0.0488005651    0.4868671584         -0.4185
H425       H    0.8292123634   -0.0550925436    0.5162224345          0.5541
H426       H    0.8842882124    0.0044898934    0.4752926531         -0.3966
C427       C    0.8816954698   -0.0000000000    0.5000000000         -0.4178
H428       H    0.8305633484   -0.0073320345    0.5446337895          0.5423
H429       H    0.6612141006   -0.0832489900    0.4865611475          0.5646
H430       H    0.6767395794   -0.0617261624    0.4547716444         -0.4041
H431       H    0.7010213631   -0.0864333859    0.4771073365         -0.4269
O432       O    0.6888253777   -0.0452461956    0.4984795538          0.5649
C371       C    1.1183045302   -0.0000000000    0.5000000000          0.5714
C372       C    1.1379554380    0.0239988245    0.5011988649           0.568
C373       C    1.1686493646    0.0208264772    0.4994697730          0.5685
C374       C    1.1813762935   -0.0082213684    0.4957655840          0.5723
C375       C    1.1610989305   -0.0328282993    0.4947945966          -0.424
C376       C    1.1305070719   -0.0281822163    0.4968157340         -0.4246
C377       C    1.2118738560   -0.0135795252    0.4877459223          0.5682
C378       C    1.1813217668    0.0711118149    0.5205492160         -0.4247
H379       H    1.1287466729    0.0471768417    0.5035708295          0.5645
H380       H    1.1153174575   -0.0481493398    0.4959599498         -0.4216
H381       H    1.1698869914   -0.0562332387    0.4923848397         -0.4205
C382       C    1.2366576104   -0.0040852332    0.5043745633         -0.4193
C383       C    1.2689312241   -0.0062254304    0.4952551940         -0.4249
H384       H    1.2329628566    0.0086077645    0.5257614855         -0.4048
H385       H    1.2161450094   -0.0253599064    0.4659994420          0.5532
C386       C    1.2965348885   -0.0039831013    0.4886397350          0.5703
C387       C    1.3290994324    0.0042002537    0.4803363012          0.5632
O388       O    1.3537789753   -0.0170397725    0.4900170238         -0.4234
C389       C    1.3737043485    0.0341371696    0.4944820543            0.57
C390       C    1.3384764225    0.0349292194    0.4951869703           0.569
H391       H    1.3304909523    0.0358930107    0.5191505020         -0.4121
H392       H    1.3819430940    0.0414189520    0.4717650661          0.5503
H393       H    1.3838172763    0.0490661217    0.5121029908         -0.4185
H394       H    1.3292123634    0.0547389643    0.4826218089          0.5541
H395       H    1.3842882124   -0.0039689660    0.5247963595         -0.3966
C396       C    1.3816954698   -0.0000000000    0.5000000000         -0.4178
H397       H    1.3305633484    0.0063911524    0.4552218015          0.5423
H398       H    1.1612141006    0.0835133579    0.5116840129          0.5646
H399       H    1.1767395794    0.0626642639    0.5439193956         -0.4041
H400       H    1.2010213631    0.0868959914    0.5210687191         -0.4269
O401       O    1.1888253777    0.0452681719    0.5005679638          0.5649
C340       C   -0.0000000000   -0.3816954698    0.0000000000          0.5714
C341       C    0.0077039165   -0.3620445620   -0.0227602839           0.568
C342       C    0.0081462820   -0.3313506354   -0.0191744982          0.5685
C343       C    0.0009170281   -0.3186237065    0.0092021865          0.5723
C344       C   -0.0072222846   -0.3389010695    0.0324442917          -0.424
C345       C   -0.0073947054   -0.3694929281    0.0273805623         -0.4246
C346       C    0.0064066161   -0.2881261440    0.0171324603          0.5682
C347       C    0.0070201396   -0.3186782332   -0.0736877069         -0.4247
H348       H    0.0140151859   -0.3712533271   -0.0451882704          0.5645
H349       H   -0.0139361605   -0.3846825425    0.0462651527         -0.4216
H350       H   -0.0135817935   -0.3301130086    0.0550972113         -0.4205
C351       C   -0.0055697046   -0.2633423896    0.0021918771         -0.4193
C352       C    0.0021251602   -0.2310687759    0.0075334496         -0.4249
H353       H   -0.0207959552   -0.2670371434   -0.0174721490         -0.4048
H354       H    0.0223026294   -0.2838549906    0.0360798492          0.5532
C355       C    0.0091017590   -0.2034651115    0.0078790038          0.5703
C356       C    0.0198313947   -0.1709005676    0.0033194830          0.5632
O357       O    0.0030228685   -0.1462210247    0.0195160428         -0.4234
C358       C    0.0176763426   -0.1262956515   -0.0297210529            0.57
C359       C    0.0173118027   -0.1615235775   -0.0307167237           0.569
H360       H   -0.0046209416   -0.1695090477   -0.0404190159         -0.4121
H361       H    0.0414797779   -0.1180569060   -0.0281454988          0.5503
H362       H    0.0067742396   -0.1161827237   -0.0500806985         -0.4185
H363       H    0.0362773678   -0.1707876366   -0.0445231213          0.5541
H364       H   -0.0245199543   -0.1157117876   -0.0054206989         -0.3966
C365       C   -0.0000000000   -0.1183045302    0.0000000000         -0.4178
H366       H    0.0439938400   -0.1694366516    0.0105107535          0.5423
H367       H    0.0198223072   -0.3387858994   -0.0819638532          0.5646
H368       H   -0.0178191739   -0.3232604206   -0.0744190857         -0.4041
H369       H    0.0123372307   -0.2989786369   -0.0885584382         -0.4269
O370       O    0.0161065713   -0.3111746223   -0.0423096718          0.5649
C309       C   -0.0000000000    0.3816954698    0.0000000000          0.5714
C310       C   -0.0233137017    0.3620445620    0.0058182612           0.568
C311       C   -0.0197760569    0.3313506354    0.0065521651          0.5685
C312       C    0.0090964745    0.3186237065    0.0016659316          0.5723
C313       C    0.0329259653    0.3389010695   -0.0045468969          -0.424
C314       C    0.0278932606    0.3694929281   -0.0051325313         -0.4246
C315       C    0.0165516366    0.2881261440    0.0077851944          0.5682
C316       C   -0.0740149280    0.3186782332    0.0009751609         -0.4247
H317       H   -0.0461824152    0.3712533271    0.0102756870          0.5645
H318       H    0.0472492383    0.3846825425   -0.0101089269         -0.4216
H319       H    0.0560228015    0.3301130086   -0.0090340202         -0.4205
C320       C    0.0026396833    0.2633423896   -0.0053719649         -0.4193
C321       C    0.0073345942    0.2310687759    0.0027336599         -0.4249
H322       H   -0.0157143430    0.2670371434   -0.0221541682         -0.4048
H323       H    0.0341366918    0.2838549906    0.0251763593          0.5532
C324       C    0.0071088896    0.2034651115    0.0097151637          0.5703
C325       C    0.0016878295    0.1709005676    0.0200363274          0.5632
O326       O    0.0192037555    0.1462210247    0.0046075413         -0.4234
C327       C   -0.0310661029    0.1262956515    0.0151885260            0.57
C328       C   -0.0320286548    0.1615235775    0.0147438426           0.569
H329       H   -0.0399062320    0.1695090477   -0.0079083874         -0.4121
H330       H   -0.0314409512    0.1180569060    0.0390411023          0.5503
H331       H   -0.0504667764    0.1161827237    0.0026591652         -0.4185
H332       H   -0.0473386780    0.1707876366    0.0325177692          0.5541
H333       H   -0.0033988854    0.1157117876   -0.0248809106         -0.3966
C334       C   -0.0000000000    0.1183045302    0.0000000000         -0.4178
H335       H    0.0068805794    0.1694366516    0.0447056095          0.5423
H336       H   -0.0833095439    0.3387858994    0.0130582156          0.5646
H337       H   -0.0727140794    0.3232604206   -0.0238408460         -0.4041
H338       H   -0.0892704199    0.2989786369    0.0050592858         -0.4269
O339       O   -0.0434843444    0.3111746223    0.0125953070          0.5649
C278       C   -0.3816954698   -0.0000000000    0.0000000000          0.5714
C279       C   -0.3620445620   -0.0216385320    0.0104477168           0.568
C280       C   -0.3313506354   -0.0180255637    0.0104452068          0.5685
C281       C   -0.3186237065    0.0092450771   -0.0002229934          0.5723
C282       C   -0.3389010695    0.0313081549   -0.0111621189          -0.424
C283       C   -0.3694929281    0.0262617264   -0.0107097426         -0.4246
C284       C   -0.2881261440    0.0177909283    0.0042483873          0.5682
C285       C   -0.3186782332   -0.0722626319    0.0160397174         -0.4247
H286       H   -0.3712533271   -0.0431187685    0.0194724683          0.5645
H287       H   -0.3846825425    0.0441971868   -0.0195266382         -0.4216
H288       H   -0.3301130086    0.0530056732   -0.0202624384         -0.4205
C289       C   -0.2633423896    0.0014894140   -0.0057972045         -0.4193
C290       C   -0.2310687759    0.0077377923    0.0011814135         -0.4249
H291       H   -0.2670371434   -0.0198997580   -0.0184864106         -0.4048
H292       H   -0.2838549906    0.0385513825    0.0176904975          0.5532
C293       C   -0.2034651115    0.0089397295    0.0080623789          0.5703
C294       C   -0.1709005676    0.0057360179    0.0192717742          0.5632
O295       O   -0.1462210247    0.0197397409    0.0005969022         -0.4234
C296       C   -0.1262956515   -0.0273184539    0.0212013242            0.57
C297       C   -0.1615235775   -0.0283514334    0.0209621529           0.569
H298       H   -0.1695090477   -0.0406804268    0.0003909189         -0.4121
H299       H   -0.1180569060   -0.0228240270    0.0446296412          0.5503
H300       H   -0.1161827237   -0.0488655301    0.0128890128         -0.4185
H301       H   -0.1707876366   -0.0397175902    0.0414833554          0.5541
H302       H   -0.1157117876   -0.0083985366   -0.0236659400         -0.3966
C303       C   -0.1183045302   -0.0000000000    0.0000000000         -0.4178
H304       H   -0.1694366516    0.0158476343    0.0423649192          0.5423
H305       H   -0.3387858994   -0.0788995027    0.0297634938          0.5646
H306       H   -0.3232604206   -0.0760468522   -0.0085205368         -0.4041
H307       H   -0.2989786369   -0.0863655285    0.0231473484         -0.4269
O308       O   -0.3111746223   -0.0400045662    0.0211935049          0.5649
C247       C    0.1183045302   -0.0000000000    0.0000000000          0.5714
C248       C    0.1379554380    0.0238287203   -0.0030940173           0.568
C249       C    0.1686493646    0.0203991626   -0.0042305385          0.5685
C250       C    0.1813762935   -0.0088440239   -0.0027026686          0.5723
C251       C    0.1610989305   -0.0332305502    0.0007238756          -0.424
C252       C    0.1305070719   -0.0282988055    0.0018853309         -0.4246
C253       C    0.2118738560   -0.0155446800   -0.0096399611          0.5682
C254       C    0.1813217668    0.0736345718    0.0075571383         -0.4247
H255       H    0.1287466729    0.0470586592   -0.0048875160          0.5645
H256       H    0.1153174575   -0.0480991718    0.0045989782         -0.4216
H257       H    0.1698869914   -0.0566905142    0.0025205966         -0.4205
C258       C    0.2366576104   -0.0032409108    0.0050321399         -0.4193
C259       C    0.2689312241   -0.0069708796   -0.0035603378         -0.4249
H260       H    0.2329628566    0.0130577923    0.0238168387         -0.4048
H261       H    0.2161450094   -0.0310093841   -0.0289409899          0.5532
C262       C    0.2965348885   -0.0059424754   -0.0104693698          0.5703
C263       C    0.3290994324    0.0006313979   -0.0200973759          0.5632
O264       O    0.3537789753   -0.0185451800   -0.0067889589         -0.4234
C265       C    0.3737043485    0.0326088815   -0.0115089062            0.57
C266       C    0.3384764225    0.0335138028   -0.0109563062           0.569
H267       H    0.3304909523    0.0387296233    0.0124525589         -0.4121
H268       H    0.3819430940    0.0357288220   -0.0351595273          0.5503
H269       H    0.3838172763    0.0504371512    0.0031718231         -0.4185
H270       H    0.3292123634    0.0507692992   -0.0268483520          0.5541
H271       H    0.3842882124    0.0005102189    0.0251068081         -0.3966
C272       C    0.3816954698   -0.0000000000    0.0000000000         -0.4178
H273       H    0.3305633484   -0.0016851220   -0.0452006002          0.5423
H274       H    0.1612141006    0.0842591692   -0.0033748343          0.5646
H275       H    0.1767395794    0.0694838170    0.0320581106         -0.4041
H276       H    0.2010213631    0.0892589664    0.0052574857         -0.4269
O277       O    0.1888253777    0.0446457462   -0.0075024871          0.5649
C216       C   -0.0000000000    0.0000000000   -0.3816954698          0.5714
C217       C    0.0035522051    0.0237647363   -0.3620445620           0.568
C218       C    0.0046224883    0.0203139335   -0.3313506354          0.5685
C219       C    0.0025318985   -0.0088944177   -0.3186237065          0.5723
C220       C   -0.0013635109   -0.0332104547   -0.3389010695          -0.424
C221       C   -0.0024298028   -0.0282572632   -0.3694929281         -0.4246
C222       C    0.0093389012   -0.0157273917   -0.2881261440          0.5682
C223       C   -0.0061380916    0.0737664174   -0.3186782332         -0.4247
H224       H    0.0057926047    0.0469558404   -0.3712533271          0.5645
H225       H   -0.0055241527   -0.0480017152   -0.3846825425         -0.4216
H226       H   -0.0036115607   -0.0566314792   -0.3301130086         -0.4205
C227       C   -0.0050936027   -0.0031434291   -0.2633423896         -0.4193
C228       C    0.0034254714   -0.0070381328   -0.2310687759         -0.4249
H229       H   -0.0235610299    0.0135139046   -0.2670371434         -0.4048
H230       H    0.0283386191   -0.0315608216   -0.2838549906          0.5532
C231       C    0.0103530221   -0.0061429350   -0.2034651115          0.5703
C232       C    0.0201058069    0.0002443571   -0.1709005676          0.5632
O233       O    0.0064306604   -0.0186724468   -0.1462210247         -0.4234
C234       C    0.0121345740    0.0323812629   -0.1262956515            0.57
C235       C    0.0115994983    0.0332966555   -0.1615235775           0.569
H236       H   -0.0117046107    0.0389621872   -0.1695090477         -0.4121
H237       H    0.0358408780    0.0350452927   -0.1180569060          0.5503
H238       H   -0.0022001964    0.0504888683   -0.1161827237         -0.4185
H239       H    0.0278208092    0.0502429928   -0.1707876366          0.5541
H240       H   -0.0250923317    0.0009934919   -0.1157117876         -0.3966
C241       C   -0.0000000000    0.0000000000   -0.1183045302         -0.4178
H242       H    0.0451597797   -0.0025550321   -0.1694366516          0.5423
H243       H    0.0049964043    0.0841785783   -0.3387858994          0.5646
H244       H   -0.0307144350    0.0700881357   -0.3232604206         -0.4041
H245       H   -0.0035380574    0.0893436422   -0.2989786369         -0.4269
O246       O    0.0083606366    0.0444930301   -0.3111746223          0.5649
C185       C   -0.0000000000    0.0000000000    0.3816954698          0.5714
C186       C    0.0235190217    0.0049230550    0.3620445620           0.568
C187       C    0.0200120079    0.0057916173    0.3313506354          0.5685
C188       C   -0.0090261644    0.0020123453    0.3186237065          0.5723
C189       C   -0.0330756771   -0.0032852774    0.3389010695          -0.424
C190       C   -0.0280690293   -0.0040628137    0.3694929281         -0.4246
C191       C   -0.0162420269    0.0084120443    0.2881261440          0.5682
C192       C    0.0739981270   -0.0018541044    0.3186782332         -0.4247
H193       H    0.0465413745    0.0085032744    0.3712533271          0.5645
H194       H   -0.0476010454   -0.0082958664    0.3846825425         -0.4216
H195       H   -0.0563271209   -0.0068864546    0.3301130086         -0.4205
C196       C   -0.0028430499   -0.0052671626    0.2633423896         -0.4193
C197       C   -0.0072247668    0.0030119617    0.2310687759         -0.4249
H198       H    0.0148562205   -0.0227385237    0.2670371434         -0.4048
H199       H   -0.0331496158    0.0264625352    0.2838549906          0.5532
C200       C   -0.0067324221    0.0099797400    0.2034651115          0.5703
C201       C   -0.0009208887    0.0200861929    0.1709005676          0.5632
O202       O   -0.0190136455    0.0053380658    0.1462210247         -0.4234
C203       C    0.0316238536    0.0139902093    0.1262956515            0.57
C204       C    0.0325687084    0.0135090659    0.1615235775           0.569
H205       H    0.0395748538   -0.0094276661    0.1695090477         -0.4121
H206       H    0.0329099776    0.0378110361    0.1180569060          0.5503
H207       H    0.0505315332    0.0007285854    0.1161827237         -0.4185
H208       H    0.0485467956    0.0306849211    0.1707876366          0.5541
H209       H    0.0024455542   -0.0249926269    0.1157117876         -0.3966
C210       C   -0.0000000000    0.0000000000    0.1183045302         -0.4178
H211       H   -0.0051670845    0.0449359002    0.1694366516          0.5423
H212       H    0.0837477190    0.0098649207    0.3387858994          0.5646
H213       H    0.0717498606   -0.0266022701    0.3232604206         -0.4041
H214       H    0.0893985537    0.0016440334    0.2989786369         -0.4269
O215       O    0.0439339212    0.0109243093    0.3111746223          0.5649
loop_
_geom_bond_atom_site_label_1
_geom_bond_atom_site_label_2
_geom_bond_distance
_geom_bond_site_symmetry_2
_ccdc_geom_bond_type
Zn1          O5 1.942       .   S
Zn1          O6 1.922       .   S
Zn1         O10 1.922       .   S
Zn1         O17 1.922       .   S
Zn2          O5 1.942       .   S
Zn2          O7 1.922       .   S
Zn2          O9 1.922       .   S
Zn2         O13 1.922       .   S
Zn3          O5 1.942       .   S
Zn3          O8 1.922       .   S
Zn3         O11 1.922       .   S
Zn3         O14 1.922       .   S
Zn4          O5 1.942       .   S
Zn4         O12 1.922       .   S
Zn4         O15 1.922       .   S
Zn4         O16 1.922       .   S
O6          C18 1.304       .   A
O7          C19 1.304       .   A
O8          C20 1.304       .   A
O9          C18 1.304       .   A
O10         C20 1.304       .   A
O11         C19 1.304       .   A
O12         C21 1.304       .   A
O13         C22 1.304       .   A
O14         C21 1.304       .   A
O15         C22 1.304       .   A
O16         C23 1.304       .   A
O17         C23 1.304       .   A
C18        C210 1.540       .   S
C19        C247 1.540       .   S
C20        C365 1.540       .   S
C21        C241 1.540       .   S
C22        C334 1.540       .   S
C23        C303 1.540       .   S
Zn24        O28 1.942       .   S
Zn24        O29 1.922       .   S
Zn24        O33 1.922       .   S
Zn24        O40 1.922       .   S
Zn25        O28 1.942       .   S
Zn25        O30 1.922       .   S
Zn25        O32 1.922       .   S
Zn25        O36 1.922       .   S
Zn26        O28 1.942       .   S
Zn26        O31 1.922       .   S
Zn26        O34 1.922       .   S
Zn26        O37 1.922       .   S
Zn27        O28 1.942       .   S
Zn27        O35 1.922       .   S
Zn27        O38 1.922       .   S
Zn27        O39 1.922       .   S
O29         C41 1.304       .   A
O30         C42 1.304       .   A
O31         C43 1.304       .   A
O32         C41 1.304       .   A
O33         C43 1.304       .   A
O34         C42 1.304       .   A
O35         C44 1.304       .   A
O36         C45 1.304       .   A
O37         C44 1.304       .   A
O38         C45 1.304       .   A
O39         C46 1.304       .   A
O40         C46 1.304       .   A
C41        C185 1.540   1_655   S
C42        C371 1.540       .   S
C43        C458 1.540       .   S
C44        C216 1.540   1_656   S
C45        C464 1.540       .   S
C46        C427 1.540       .   S
Zn47        O51 1.942       .   S
Zn47        O52 1.922       .   S
Zn47        O56 1.922       .   S
Zn47        O63 1.922       .   S
Zn48        O51 1.942       .   S
Zn48        O53 1.922       .   S
Zn48        O55 1.922       .   S
Zn48        O59 1.922       .   S
Zn49        O51 1.942       .   S
Zn49        O54 1.922       .   S
Zn49        O57 1.922       .   S
Zn49        O60 1.922       .   S
Zn50        O51 1.942       .   S
Zn50        O58 1.922       .   S
Zn50        O61 1.922       .   S
Zn50        O62 1.922       .   S
O52         C64 1.304       .   A
O53         C65 1.304       .   A
O54         C66 1.304       .   A
O55         C64 1.304       .   A
O56         C66 1.304       .   A
O57         C65 1.304       .   A
O58         C67 1.304       .   A
O59         C68 1.304       .   A
O60         C67 1.304       .   A
O61         C68 1.304       .   A
O62         C69 1.304       .   A
O63         C69 1.304       .   A
C64        C526 1.540       .   S
C65        C613 1.540       .   S
C66        C309 1.540   1_655   S
C67        C520 1.540       .   S
C68        C340 1.540   1_665   S
C69        C557 1.540       .   S
Zn70        O74 1.942       .   S
Zn70        O75 1.922       .   S
Zn70        O79 1.922       .   S
Zn70        O86 1.922       .   S
Zn71        O74 1.942       .   S
Zn71        O76 1.922       .   S
Zn71        O78 1.922       .   S
Zn71        O82 1.922       .   S
Zn72        O74 1.942       .   S
Zn72        O77 1.922       .   S
Zn72        O80 1.922       .   S
Zn72        O83 1.922       .   S
Zn73        O74 1.942       .   S
Zn73        O81 1.922       .   S
Zn73        O84 1.922       .   S
Zn73        O85 1.922       .   S
O75         C87 1.304       .   A
O76         C88 1.304       .   A
O77         C89 1.304       .   A
O78         C87 1.304       .   A
O79         C89 1.304       .   A
O80         C88 1.304       .   A
O81         C90 1.304       .   A
O82         C91 1.304       .   A
O83         C90 1.304       .   A
O84         C91 1.304       .   A
O85         C92 1.304       .   A
O86         C92 1.304       .   A
C87        C433 1.540       .   S
C88        C495 1.540       .   S
C89        C650 1.540       .   S
C90        C489 1.540   1_565   S
C91        C619 1.540       .   S
C92        C551 1.540   1_556   S
Zn93        O97 1.942       .   S
Zn93        O98 1.922       .   S
Zn93       O102 1.922       .   S
Zn93       O109 1.922       .   S
Zn94        O97 1.942       .   S
Zn94        O99 1.922       .   S
Zn94       O101 1.922       .   S
Zn94       O105 1.922       .   S
Zn95        O97 1.942       .   S
Zn95       O100 1.922       .   S
Zn95       O103 1.922       .   S
Zn95       O106 1.922       .   S
Zn96        O97 1.942       .   S
Zn96       O104 1.922       .   S
Zn96       O107 1.922       .   S
Zn96       O108 1.922       .   S
O98        C110 1.304       .   A
O99        C111 1.304       .   A
O100       C112 1.304       .   A
O101       C110 1.304       .   A
O102       C112 1.304       .   A
O103       C111 1.304       .   A
O104       C113 1.304       .   A
O105       C114 1.304       .   A
O106       C113 1.304       .   A
O107       C114 1.304       .   A
O108       C115 1.304       .   A
O109       C115 1.304       .   A
C110       C768 1.540       .   S
C111       C272 1.540   1_565   S
C112       C737 1.540       .   S
C113       C774 1.540       .   S
C114       C681 1.540       .   S
C115       C278 1.540   1_665   S
Zn116      O120 1.942       .   S
Zn116      O121 1.922       .   S
Zn116      O125 1.922       .   S
Zn116      O132 1.922       .   S
Zn117      O120 1.942       .   S
Zn117      O122 1.922       .   S
Zn117      O124 1.922       .   S
Zn117      O128 1.922       .   S
Zn118      O120 1.942       .   S
Zn118      O123 1.922       .   S
Zn118      O126 1.922       .   S
Zn118      O129 1.922       .   S
Zn119      O120 1.942       .   S
Zn119      O127 1.922       .   S
Zn119      O130 1.922       .   S
Zn119      O131 1.922       .   S
O121       C133 1.304       .   A
O122       C134 1.304       .   A
O123       C135 1.304       .   A
O124       C133 1.304       .   A
O125       C135 1.304       .   A
O126       C134 1.304       .   A
O127       C136 1.304       .   A
O128       C137 1.304       .   A
O129       C136 1.304       .   A
O130       C137 1.304       .   A
O131       C138 1.304       .   A
O132       C138 1.304       .   A
C133       C396 1.540   1_465   S
C134       C706 1.540       .   S
C135       C805 1.540       .   S
C136       C402 1.540   1_565   S
C137       C861 1.540       .   S
C138       C712 1.540   1_556   S
Zn139      O143 1.942       .   S
Zn139      O144 1.922       .   S
Zn139      O148 1.922       .   S
Zn139      O155 1.922       .   S
Zn140      O143 1.942       .   S
Zn140      O145 1.922       .   S
Zn140      O147 1.922       .   S
Zn140      O151 1.922       .   S
Zn141      O143 1.942       .   S
Zn141      O146 1.922       .   S
Zn141      O149 1.922       .   S
Zn141      O152 1.922       .   S
Zn142      O143 1.942       .   S
Zn142      O150 1.922       .   S
Zn142      O153 1.922       .   S
Zn142      O154 1.922       .   S
O144       C156 1.304       .   A
O145       C157 1.304       .   A
O146       C158 1.304       .   A
O147       C156 1.304       .   A
O148       C158 1.304       .   A
O149       C157 1.304       .   A
O150       C159 1.304       .   A
O151       C160 1.304       .   A
O152       C159 1.304       .   A
O153       C160 1.304       .   A
O154       C161 1.304       .   A
O155       C161 1.304       .   A
C156       C799 1.540       .   S
C157       C582 1.540   1_455   S
C158       C923 1.540       .   S
C159       C743 1.540   1_545   S
C160       C892 1.540       .   S
C161       C588 1.540       .   S
Zn162      O166 1.942       .   S
Zn162      O167 1.922       .   S
Zn162      O171 1.922       .   S
Zn162      O178 1.922       .   S
Zn163      O166 1.942       .   S
Zn163      O168 1.922       .   S
Zn163      O170 1.922       .   S
Zn163      O174 1.922       .   S
Zn164      O166 1.942       .   S
Zn164      O169 1.922       .   S
Zn164      O172 1.922       .   S
Zn164      O175 1.922       .   S
Zn165      O166 1.942       .   S
Zn165      O173 1.922       .   S
Zn165      O176 1.922       .   S
Zn165      O177 1.922       .   S
O167       C179 1.304       .   A
O168       C180 1.304       .   A
O169       C181 1.304       .   A
O170       C179 1.304       .   A
O171       C181 1.304       .   A
O172       C180 1.304       .   A
O173       C182 1.304       .   A
O174       C183 1.304       .   A
O175       C182 1.304       .   A
O176       C183 1.304       .   A
O177       C184 1.304       .   A
O178       C184 1.304       .   A
C179       C867 1.540       .   S
C180       C644 1.540   1_455   S
C181       C830 1.540   1_545   S
C182       C898 1.540   1_556   S
C183       C836 1.540       .   S
C184       C675 1.540       .   S
C898       C899 0.026       .   A
C898       C903 0.026       .   A
C899       C900 0.026       .   A
C899       H906 0.021       .   A
C900       C901 0.027       .   A
C900       O928 0.027       .   A
C901       C902 0.027       .   A
C901       C904 0.027       .   A
C902       C903 0.026       .   A
C902       H908 0.021       .   A
C903       H907 0.021       .   A
C904       C909 0.026       .   A
C904       H912 0.021       .   A
C905       H925 0.021       .   A
C905       H926 0.021       .   A
C905       H927 0.021       .   A
C905       O928 0.028       .   A
C909       C910 0.028       .   A
C909       H911 0.021       .   A
C910       C913 0.024       .   A
C913       C914 0.029       .   A
C914       O915 0.029       .   A
C914       C917 0.030       .   A
C914       H924 0.021       .   A
O915       C923 0.029       .   A
C916       C917 0.030       .   A
C916       H919 0.021       .   A
C916       H920 0.021       .   A
C916       C923 0.030       .   A
C917       H918 0.021       .   A
C917       H921 0.021       .   A
H922       C923 0.021       .   A
C867       C868 0.026       .   A
C867       C872 0.026       .   A
C868       C869 0.026       .   A
C868       H875 0.021       .   A
C869       C870 0.027       .   A
C869       O897 0.027       .   A
C870       C871 0.027       .   A
C870       C873 0.027       .   A
C871       C872 0.026       .   A
C871       H877 0.021       .   A
C872       H876 0.021       .   A
C873       C878 0.026       .   A
C873       H881 0.021       .   A
C874       H894 0.021       .   A
C874       H895 0.021       .   A
C874       H896 0.021       .   A
C874       O897 0.028       .   A
C878       C879 0.028       .   A
C878       H880 0.021       .   A
C879       C882 0.024       .   A
C882       C883 0.029       .   A
C883       O884 0.029       .   A
C883       C886 0.030       .   A
C883       H893 0.021       .   A
O884       C892 0.029       .   A
C885       C886 0.030       .   A
C885       H888 0.021       .   A
C885       H889 0.021       .   A
C885       C892 0.030       .   A
C886       H887 0.021       .   A
C886       H890 0.021       .   A
H891       C892 0.021       .   A
C836       C837 0.026       .   A
C836       C841 0.026       .   A
C837       C838 0.026       .   A
C837       H844 0.021       .   A
C838       C839 0.027       .   A
C838       O866 0.027       .   A
C839       C840 0.027       .   A
C839       C842 0.027       .   A
C840       C841 0.026       .   A
C840       H846 0.021       .   A
C841       H845 0.021       .   A
C842       C847 0.026       .   A
C842       H850 0.021       .   A
C843       H863 0.021       .   A
C843       H864 0.021       .   A
C843       H865 0.021       .   A
C843       O866 0.028       .   A
C847       C848 0.028       .   A
C847       H849 0.021       .   A
C848       C851 0.024       .   A
C851       C852 0.029       .   A
C852       O853 0.029       .   A
C852       C855 0.030       .   A
C852       H862 0.021       .   A
O853       C861 0.029       .   A
C854       C855 0.030       .   A
C854       H857 0.021       .   A
C854       H858 0.021       .   A
C854       C861 0.030       .   A
C855       H856 0.021       .   A
C855       H859 0.021       .   A
H860       C861 0.021       .   A
C805       C806 0.026       .   A
C805       C810 0.026       .   A
C806       C807 0.026       .   A
C806       H813 0.021       .   A
C807       C808 0.027       .   A
C807       O835 0.027       .   A
C808       C809 0.027       .   A
C808       C811 0.027       .   A
C809       C810 0.026       .   A
C809       H815 0.021       .   A
C810       H814 0.021       .   A
C811       C816 0.026       .   A
C811       H819 0.021       .   A
C812       H832 0.021       .   A
C812       H833 0.021       .   A
C812       H834 0.021       .   A
C812       O835 0.028       .   A
C816       C817 0.028       .   A
C816       H818 0.021       .   A
C817       C820 0.024       .   A
C820       C821 0.029       .   A
C821       O822 0.029       .   A
C821       C824 0.030       .   A
C821       H831 0.021       .   A
O822       C830 0.029       .   A
C823       C824 0.030       .   A
C823       H826 0.021       .   A
C823       H827 0.021       .   A
C823       C830 0.030       .   A
C824       H825 0.021       .   A
C824       H828 0.021       .   A
H829       C830 0.021       .   A
C774       C775 0.026       .   A
C774       C779 0.026       .   A
C775       C776 0.026       .   A
C775       H782 0.021       .   A
C776       C777 0.027       .   A
C776       O804 0.027       .   A
C777       C778 0.027       .   A
C777       C780 0.027       .   A
C778       C779 0.026       .   A
C778       H784 0.021       .   A
C779       H783 0.021       .   A
C780       C785 0.026       .   A
C780       H788 0.021       .   A
C781       H801 0.021       .   A
C781       H802 0.021       .   A
C781       H803 0.021       .   A
C781       O804 0.028       .   A
C785       C786 0.028       .   A
C785       H787 0.021       .   A
C786       C789 0.024       .   A
C789       C790 0.029       .   A
C790       O791 0.029       .   A
C790       C793 0.030       .   A
C790       H800 0.021       .   A
O791       C799 0.029       .   A
C792       C793 0.030       .   A
C792       H795 0.021       .   A
C792       H796 0.021       .   A
C792       C799 0.030       .   A
C793       H794 0.021       .   A
C793       H797 0.021       .   A
H798       C799 0.021       .   A
C743       C744 0.026       .   A
C743       C748 0.026       .   A
C744       C745 0.026       .   A
C744       H751 0.021       .   A
C745       C746 0.027       .   A
C745       O773 0.027       .   A
C746       C747 0.027       .   A
C746       C749 0.027       .   A
C747       C748 0.026       .   A
C747       H753 0.021       .   A
C748       H752 0.021       .   A
C749       C754 0.026       .   A
C749       H757 0.021       .   A
C750       H770 0.021       .   A
C750       H771 0.021       .   A
C750       H772 0.021       .   A
C750       O773 0.028       .   A
C754       C755 0.028       .   A
C754       H756 0.021       .   A
C755       C758 0.024       .   A
C758       C759 0.029       .   A
C759       O760 0.029       .   A
C759       C762 0.030       .   A
C759       H769 0.021       .   A
O760       C768 0.029       .   A
C761       C762 0.030       .   A
C761       H764 0.021       .   A
C761       H765 0.021       .   A
C761       C768 0.030       .   A
C762       H763 0.021       .   A
C762       H766 0.021       .   A
H767       C768 0.021       .   A
C712       C713 0.026       .   A
C712       C717 0.026       .   A
C713       C714 0.026       .   A
C713       H720 0.021       .   A
C714       C715 0.027       .   A
C714       O742 0.027       .   A
C715       C716 0.027       .   A
C715       C718 0.027       .   A
C716       C717 0.026       .   A
C716       H722 0.021       .   A
C717       H721 0.021       .   A
C718       C723 0.026       .   A
C718       H726 0.021       .   A
C719       H739 0.021       .   A
C719       H740 0.021       .   A
C719       H741 0.021       .   A
C719       O742 0.028       .   A
C723       C724 0.028       .   A
C723       H725 0.021       .   A
C724       C727 0.024       .   A
C727       C728 0.029       .   A
C728       O729 0.029       .   A
C728       C731 0.030       .   A
C728       H738 0.021       .   A
O729       C737 0.029       .   A
C730       C731 0.030       .   A
C730       H733 0.021       .   A
C730       H734 0.021       .   A
C730       C737 0.030       .   A
C731       H732 0.021       .   A
C731       H735 0.021       .   A
H736       C737 0.021       .   A
C681       C682 0.026       .   A
C681       C686 0.026       .   A
C682       C683 0.026       .   A
C682       H689 0.021       .   A
C683       C684 0.027       .   A
C683       O711 0.027       .   A
C684       C685 0.027       .   A
C684       C687 0.027       .   A
C685       C686 0.026       .   A
C685       H691 0.021       .   A
C686       H690 0.021       .   A
C687       C692 0.026       .   A
C687       H695 0.021       .   A
C688       H708 0.021       .   A
C688       H709 0.021       .   A
C688       H710 0.021       .   A
C688       O711 0.028       .   A
C692       C693 0.028       .   A
C692       H694 0.021       .   A
C693       C696 0.024       .   A
C696       C697 0.029       .   A
C697       O698 0.029       .   A
C697       C700 0.030       .   A
C697       H707 0.021       .   A
O698       C706 0.029       .   A
C699       C700 0.030       .   A
C699       H702 0.021       .   A
C699       H703 0.021       .   A
C699       C706 0.030       .   A
C700       H701 0.021       .   A
C700       H704 0.021       .   A
H705       C706 0.021       .   A
C650       C651 0.026       .   A
C650       C655 0.026       .   A
C651       C652 0.026       .   A
C651       H658 0.021       .   A
C652       C653 0.027       .   A
C652       O680 0.027       .   A
C653       C654 0.027       .   A
C653       C656 0.027       .   A
C654       C655 0.026       .   A
C654       H660 0.021       .   A
C655       H659 0.021       .   A
C656       C661 0.026       .   A
C656       H664 0.021       .   A
C657       H677 0.021       .   A
C657       H678 0.021       .   A
C657       H679 0.021       .   A
C657       O680 0.028       .   A
C661       C662 0.028       .   A
C661       H663 0.021       .   A
C662       C665 0.024       .   A
C665       C666 0.029       .   A
C666       O667 0.029       .   A
C666       C669 0.030       .   A
C666       H676 0.021       .   A
O667       C675 0.029       .   A
C668       C669 0.030       .   A
C668       H671 0.021       .   A
C668       H672 0.021       .   A
C668       C675 0.030       .   A
C669       H670 0.021       .   A
C669       H673 0.021       .   A
H674       C675 0.021       .   A
C619       C620 0.026       .   A
C619       C624 0.026       .   A
C620       C621 0.026       .   A
C620       H627 0.021       .   A
C621       C622 0.027       .   A
C621       O649 0.027       .   A
C622       C623 0.027       .   A
C622       C625 0.027       .   A
C623       C624 0.026       .   A
C623       H629 0.021       .   A
C624       H628 0.021       .   A
C625       C630 0.026       .   A
C625       H633 0.021       .   A
C626       H646 0.021       .   A
C626       H647 0.021       .   A
C626       H648 0.021       .   A
C626       O649 0.028       .   A
C630       C631 0.028       .   A
C630       H632 0.021       .   A
C631       C634 0.024       .   A
C634       C635 0.029       .   A
C635       O636 0.029       .   A
C635       C638 0.030       .   A
C635       H645 0.021       .   A
O636       C644 0.029       .   A
C637       C638 0.030       .   A
C637       H640 0.021       .   A
C637       H641 0.021       .   A
C637       C644 0.030       .   A
C638       H639 0.021       .   A
C638       H642 0.021       .   A
H643       C644 0.021       .   A
C588       C589 0.026       .   A
C588       C593 0.026       .   A
C589       C590 0.026       .   A
C589       H596 0.021       .   A
C590       C591 0.027       .   A
C590       O618 0.027       .   A
C591       C592 0.027       .   A
C591       C594 0.027       .   A
C592       C593 0.026       .   A
C592       H598 0.021       .   A
C593       H597 0.021       .   A
C594       C599 0.026       .   A
C594       H602 0.021       .   A
C595       H615 0.021       .   A
C595       H616 0.021       .   A
C595       H617 0.021       .   A
C595       O618 0.028       .   A
C599       C600 0.028       .   A
C599       H601 0.021       .   A
C600       C603 0.024       .   A
C603       C604 0.029       .   A
C604       O605 0.029       .   A
C604       C607 0.030       .   A
C604       H614 0.021       .   A
O605       C613 0.029       .   A
C606       C607 0.030       .   A
C606       H609 0.021       .   A
C606       H610 0.021       .   A
C606       C613 0.030       .   A
C607       H608 0.021       .   A
C607       H611 0.021       .   A
H612       C613 0.021       .   A
C557       C558 0.026       .   A
C557       C562 0.026       .   A
C558       C559 0.026       .   A
C558       H565 0.021       .   A
C559       C560 0.027       .   A
C559       O587 0.027       .   A
C560       C561 0.027       .   A
C560       C563 0.027       .   A
C561       C562 0.026       .   A
C561       H567 0.021       .   A
C562       H566 0.021       .   A
C563       C568 0.026       .   A
C563       H571 0.021       .   A
C564       H584 0.021       .   A
C564       H585 0.021       .   A
C564       H586 0.021       .   A
C564       O587 0.028       .   A
C568       C569 0.028       .   A
C568       H570 0.021       .   A
C569       C572 0.024       .   A
C572       C573 0.029       .   A
C573       O574 0.029       .   A
C573       C576 0.030       .   A
C573       H583 0.021       .   A
O574       C582 0.029       .   A
C575       C576 0.030       .   A
C575       H578 0.021       .   A
C575       H579 0.021       .   A
C575       C582 0.030       .   A
C576       H577 0.021       .   A
C576       H580 0.021       .   A
H581       C582 0.021       .   A
C526       C527 0.026       .   A
C526       C531 0.026       .   A
C527       C528 0.026       .   A
C527       H534 0.021       .   A
C528       C529 0.027       .   A
C528       O556 0.027       .   A
C529       C530 0.027       .   A
C529       C532 0.027       .   A
C530       C531 0.026       .   A
C530       H536 0.021       .   A
C531       H535 0.021       .   A
C532       C537 0.026       .   A
C532       H540 0.021       .   A
C533       H553 0.021       .   A
C533       H554 0.021       .   A
C533       H555 0.021       .   A
C533       O556 0.028       .   A
C537       C538 0.028       .   A
C537       H539 0.021       .   A
C538       C541 0.024       .   A
C541       C542 0.029       .   A
C542       O543 0.029       .   A
C542       C545 0.030       .   A
C542       H552 0.021       .   A
O543       C551 0.029       .   A
C544       C545 0.030       .   A
C544       H547 0.021       .   A
C544       H548 0.021       .   A
C544       C551 0.030       .   A
C545       H546 0.021       .   A
C545       H549 0.021       .   A
H550       C551 0.021       .   A
C495       C496 0.026       .   A
C495       C500 0.026       .   A
C496       C497 0.026       .   A
C496       H503 0.021       .   A
C497       C498 0.027       .   A
C497       O525 0.027       .   A
C498       C499 0.027       .   A
C498       C501 0.027       .   A
C499       C500 0.026       .   A
C499       H505 0.021       .   A
C500       H504 0.021       .   A
C501       C506 0.026       .   A
C501       H509 0.021       .   A
C502       H522 0.021       .   A
C502       H523 0.021       .   A
C502       H524 0.021       .   A
C502       O525 0.028       .   A
C506       C507 0.028       .   A
C506       H508 0.021       .   A
C507       C510 0.024       .   A
C510       C511 0.029       .   A
C511       O512 0.029       .   A
C511       C514 0.030       .   A
C511       H521 0.021       .   A
O512       C520 0.029       .   A
C513       C514 0.030       .   A
C513       H516 0.021       .   A
C513       H517 0.021       .   A
C513       C520 0.030       .   A
C514       H515 0.021       .   A
C514       H518 0.021       .   A
H519       C520 0.021       .   A
C464       C465 0.026       .   A
C464       C469 0.026       .   A
C465       C466 0.026       .   A
C465       H472 0.021       .   A
C466       C467 0.027       .   A
C466       O494 0.027       .   A
C467       C468 0.027       .   A
C467       C470 0.027       .   A
C468       C469 0.026       .   A
C468       H474 0.021       .   A
C469       H473 0.021       .   A
C470       C475 0.026       .   A
C470       H478 0.021       .   A
C471       H491 0.021       .   A
C471       H492 0.021       .   A
C471       H493 0.021       .   A
C471       O494 0.028       .   A
C475       C476 0.028       .   A
C475       H477 0.021       .   A
C476       C479 0.024       .   A
C479       C480 0.029       .   A
C480       O481 0.029       .   A
C480       C483 0.030       .   A
C480       H490 0.021       .   A
O481       C489 0.029       .   A
C482       C483 0.030       .   A
C482       H485 0.021       .   A
C482       H486 0.021       .   A
C482       C489 0.030       .   A
C483       H484 0.021       .   A
C483       H487 0.021       .   A
H488       C489 0.021       .   A
C433       C434 0.026       .   A
C433       C438 0.026       .   A
C434       C435 0.026       .   A
C434       H441 0.021       .   A
C435       C436 0.027       .   A
C435       O463 0.027       .   A
C436       C437 0.027       .   A
C436       C439 0.027       .   A
C437       C438 0.026       .   A
C437       H443 0.021       .   A
C438       H442 0.021       .   A
C439       C444 0.026       .   A
C439       H447 0.021       .   A
C440       H460 0.021       .   A
C440       H461 0.021       .   A
C440       H462 0.021       .   A
C440       O463 0.028       .   A
C444       C445 0.028       .   A
C444       H446 0.021       .   A
C445       C448 0.024       .   A
C448       C449 0.029       .   A
C449       O450 0.029       .   A
C449       C452 0.030       .   A
C449       H459 0.021       .   A
O450       C458 0.029       .   A
C451       C452 0.030       .   A
C451       H454 0.021       .   A
C451       H455 0.021       .   A
C451       C458 0.030       .   A
C452       H453 0.021       .   A
C452       H456 0.021       .   A
H457       C458 0.021       .   A
C402       C403 0.026       .   A
C402       C407 0.026       .   A
C403       C404 0.026       .   A
C403       H410 0.021       .   A
C404       C405 0.027       .   A
C404       O432 0.027       .   A
C405       C406 0.027       .   A
C405       C408 0.027       .   A
C406       C407 0.026       .   A
C406       H412 0.021       .   A
C407       H411 0.021       .   A
C408       C413 0.026       .   A
C408       H416 0.021       .   A
C409       H429 0.021       .   A
C409       H430 0.021       .   A
C409       H431 0.021       .   A
C409       O432 0.028       .   A
C413       C414 0.028       .   A
C413       H415 0.021       .   A
C414       C417 0.024       .   A
C417       C418 0.029       .   A
C418       O419 0.029       .   A
C418       C421 0.030       .   A
C418       H428 0.021       .   A
O419       C427 0.029       .   A
C420       C421 0.030       .   A
C420       H423 0.021       .   A
C420       H424 0.021       .   A
C420       C427 0.030       .   A
C421       H422 0.021       .   A
C421       H425 0.021       .   A
H426       C427 0.021       .   A
C371       C372 0.026       .   A
C371       C376 0.026       .   A
C372       C373 0.026       .   A
C372       H379 0.021       .   A
C373       C374 0.027       .   A
C373       O401 0.027       .   A
C374       C375 0.027       .   A
C374       C377 0.027       .   A
C375       C376 0.026       .   A
C375       H381 0.021       .   A
C376       H380 0.021       .   A
C377       C382 0.026       .   A
C377       H385 0.021       .   A
C378       H398 0.021       .   A
C378       H399 0.021       .   A
C378       H400 0.021       .   A
C378       O401 0.028       .   A
C382       C383 0.028       .   A
C382       H384 0.021       .   A
C383       C386 0.024       .   A
C386       C387 0.029       .   A
C387       O388 0.029       .   A
C387       C390 0.030       .   A
C387       H397 0.021       .   A
O388       C396 0.029       .   A
C389       C390 0.030       .   A
C389       H392 0.021       .   A
C389       H393 0.021       .   A
C389       C396 0.030       .   A
C390       H391 0.021       .   A
C390       H394 0.021       .   A
H395       C396 0.021       .   A
C340       C341 0.026       .   A
C340       C345 0.026       .   A
C341       C342 0.026       .   A
C341       H348 0.021       .   A
C342       C343 0.027       .   A
C342       O370 0.027       .   A
C343       C344 0.027       .   A
C343       C346 0.027       .   A
C344       C345 0.026       .   A
C344       H350 0.021       .   A
C345       H349 0.021       .   A
C346       C351 0.026       .   A
C346       H354 0.021       .   A
C347       H367 0.021       .   A
C347       H368 0.021       .   A
C347       H369 0.021       .   A
C347       O370 0.028       .   A
C351       C352 0.028       .   A
C351       H353 0.021       .   A
C352       C355 0.024       .   A
C355       C356 0.029       .   A
C356       O357 0.029       .   A
C356       C359 0.030       .   A
C356       H366 0.021       .   A
O357       C365 0.029       .   A
C358       C359 0.030       .   A
C358       H361 0.021       .   A
C358       H362 0.021       .   A
C358       C365 0.030       .   A
C359       H360 0.021       .   A
C359       H363 0.021       .   A
H364       C365 0.021       .   A
C309       C310 0.026       .   A
C309       C314 0.026       .   A
C310       C311 0.026       .   A
C310       H317 0.021       .   A
C311       C312 0.027       .   A
C311       O339 0.027       .   A
C312       C313 0.027       .   A
C312       C315 0.027       .   A
C313       C314 0.026       .   A
C313       H319 0.021       .   A
C314       H318 0.021       .   A
C315       C320 0.026       .   A
C315       H323 0.021       .   A
C316       H336 0.021       .   A
C316       H337 0.021       .   A
C316       H338 0.021       .   A
C316       O339 0.028       .   A
C320       C321 0.028       .   A
C320       H322 0.021       .   A
C321       C324 0.024       .   A
C324       C325 0.029       .   A
C325       O326 0.029       .   A
C325       C328 0.030       .   A
C325       H335 0.021       .   A
O326       C334 0.029       .   A
C327       C328 0.030       .   A
C327       H330 0.021       .   A
C327       H331 0.021       .   A
C327       C334 0.030       .   A
C328       H329 0.021       .   A
C328       H332 0.021       .   A
H333       C334 0.021       .   A
C278       C279 0.026       .   A
C278       C283 0.026       .   A
C279       C280 0.026       .   A
C279       H286 0.021       .   A
C280       C281 0.027       .   A
C280       O308 0.027       .   A
C281       C282 0.027       .   A
C281       C284 0.027       .   A
C282       C283 0.026       .   A
C282       H288 0.021       .   A
C283       H287 0.021       .   A
C284       C289 0.026       .   A
C284       H292 0.021       .   A
C285       H305 0.021       .   A
C285       H306 0.021       .   A
C285       H307 0.021       .   A
C285       O308 0.028       .   A
C289       C290 0.028       .   A
C289       H291 0.021       .   A
C290       C293 0.024       .   A
C293       C294 0.029       .   A
C294       O295 0.029       .   A
C294       C297 0.030       .   A
C294       H304 0.021       .   A
O295       C303 0.029       .   A
C296       C297 0.030       .   A
C296       H299 0.021       .   A
C296       H300 0.021       .   A
C296       C303 0.030       .   A
C297       H298 0.021       .   A
C297       H301 0.021       .   A
H302       C303 0.021       .   A
C247       C248 0.026       .   A
C247       C252 0.026       .   A
C248       C249 0.026       .   A
C248       H255 0.021       .   A
C249       C250 0.027       .   A
C249       O277 0.027       .   A
C250       C251 0.027       .   A
C250       C253 0.027       .   A
C251       C252 0.026       .   A
C251       H257 0.021       .   A
C252       H256 0.021       .   A
C253       C258 0.026       .   A
C253       H261 0.021       .   A
C254       H274 0.021       .   A
C254       H275 0.021       .   A
C254       H276 0.021       .   A
C254       O277 0.028       .   A
C258       C259 0.028       .   A
C258       H260 0.021       .   A
C259       C262 0.024       .   A
C262       C263 0.029       .   A
C263       O264 0.029       .   A
C263       C266 0.030       .   A
C263       H273 0.021       .   A
O264       C272 0.029       .   A
C265       C266 0.030       .   A
C265       H268 0.021       .   A
C265       H269 0.021       .   A
C265       C272 0.030       .   A
C266       H267 0.021       .   A
C266       H270 0.021       .   A
H271       C272 0.021       .   A
C216       C217 0.026       .   A
C216       C221 0.026       .   A
C217       C218 0.026       .   A
C217       H224 0.021       .   A
C218       C219 0.027       .   A
C218       O246 0.027       .   A
C219       C220 0.027       .   A
C219       C222 0.027       .   A
C220       C221 0.026       .   A
C220       H226 0.021       .   A
C221       H225 0.021       .   A
C222       C227 0.026       .   A
C222       H230 0.021       .   A
C223       H243 0.021       .   A
C223       H244 0.021       .   A
C223       H245 0.021       .   A
C223       O246 0.028       .   A
C227       C228 0.028       .   A
C227       H229 0.021       .   A
C228       C231 0.024       .   A
C231       C232 0.029       .   A
C232       O233 0.029       .   A
C232       C235 0.030       .   A
C232       H242 0.021       .   A
O233       C241 0.029       .   A
C234       C235 0.030       .   A
C234       H237 0.021       .   A
C234       H238 0.021       .   A
C234       C241 0.030       .   A
C235       H236 0.021       .   A
C235       H239 0.021       .   A
H240       C241 0.021       .   A
C185       C186 0.026       .   A
C185       C190 0.026       .   A
C186       C187 0.026       .   A
C186       H193 0.021       .   A
C187       C188 0.027       .   A
C187       O215 0.027       .   A
C188       C189 0.027       .   A
C188       C191 0.027       .   A
C189       C190 0.026       .   A
C189       H195 0.021       .   A
C190       H194 0.021       .   A
C191       C196 0.026       .   A
C191       H199 0.021       .   A
C192       H212 0.021       .   A
C192       H213 0.021       .   A
C192       H214 0.021       .   A
C192       O215 0.028       .   A
C196       C197 0.028       .   A
C196       H198 0.021       .   A
C197       C200 0.024       .   A
C200       C201 0.029       .   A
C201       O202 0.029       .   A
C201       C204 0.030       .   A
C201       H211 0.021       .   A
O202       C210 0.029       .   A
C203       C204 0.030       .   A
C203       H206 0.021       .   A
C203       H207 0.021       .   A
C203       C210 0.030       .   A
C204       H205 0.021       .   A
C204       H208 0.021       .   A
H209       C210 0.021       .   A
