data_pcu_v1-6c_Zn_1_Ch_1-12_fer_tobacco
_audit_creation_date              2021-04-07
_audit_creation_method            'tobacco_3.0'
_symmetry_space_group_name_H-M    'P1'
_symmetry_Int_Tables_number       1
_symmetry_cell_setting            triclinic
loop_
_symmetry_equiv_pos_as_xyz
  x,y,z
_cell_length_a                    39.36947949161673
_cell_length_b                    39.36947949161673
_cell_length_c                    39.36947949161673
_cell_angle_alpha                 90.0
_cell_angle_beta                  90.0
_cell_angle_gamma                 90.0
loop_
_atom_site_label
_atom_site_type_symbol
_atom_site_fract_x
_atom_site_fract_y
_atom_site_fract_z
_atom_site_charge
Zn1       Zn   -0.0284789135   -0.0284789135    0.0284789135          1.4972
Zn2       Zn    0.0284789135    0.0284789135    0.0284789135          1.4936
Zn3       Zn    0.0284789135   -0.0284789135   -0.0284789135          1.4911
Zn4       Zn   -0.0284789135    0.0284789135   -0.0284789135          1.4948
O5         O    0.0000000000    0.0000000000    0.0000000000          -2.257
O6         O   -0.0209299186   -0.0209299186    0.0761147985         -1.1633
O7         O    0.0761147985    0.0209299186    0.0209299186         -1.1615
O8         O    0.0209299186   -0.0761147985   -0.0209299186         -1.1566
O9         O    0.0209299186    0.0209299186    0.0761147985         -1.1634
O10        O   -0.0209299186   -0.0761147985    0.0209299186         -1.1594
O11        O    0.0761147985   -0.0209299186   -0.0209299186         -1.1653
O12        O   -0.0209299186    0.0209299186   -0.0761147985         -1.1592
O13        O    0.0209299186    0.0761147985    0.0209299186         -1.1667
O14        O    0.0209299186   -0.0209299186   -0.0761147985         -1.1606
O15        O   -0.0209299186    0.0761147985   -0.0209299186         -1.1653
O16        O   -0.0761147985    0.0209299186   -0.0209299186         -1.1644
O17        O   -0.0761147985   -0.0209299186    0.0209299186         -1.1623
C18        C   -0.0000000000   -0.0000000000    0.0910045052          0.3556
C19        C    0.0910045052   -0.0000000000   -0.0000000000          0.3605
C20        C   -0.0000000000   -0.0910045052    0.0000000000          0.3501
C21        C    0.0000000000    0.0000000000   -0.0910045052          0.3539
C22        C    0.0000000000    0.0910045052   -0.0000000000          0.3652
C23        C   -0.0910045052    0.0000000000    0.0000000000          0.3557
Zn24      Zn    0.9715210865    0.0284789135    0.4715210865          1.4972
Zn25      Zn    1.0284789135   -0.0284789135    0.4715210865          1.4936
Zn26      Zn    1.0284789135    0.0284789135    0.5284789135          1.4911
Zn27      Zn    0.9715210865   -0.0284789135    0.5284789135          1.4948
O28        O    1.0000000000    0.0000000000    0.5000000000          -2.257
O29        O    0.9790700814    0.0209299186    0.4238852015         -1.1633
O30        O    1.0761147985   -0.0209299186    0.4790700814         -1.1615
O31        O    1.0209299186    0.0761147985    0.5209299186         -1.1566
O32        O    1.0209299186   -0.0209299186    0.4238852015         -1.1634
O33        O    0.9790700814    0.0761147985    0.4790700814         -1.1594
O34        O    1.0761147985    0.0209299186    0.5209299186         -1.1653
O35        O    0.9790700814   -0.0209299186    0.5761147985         -1.1592
O36        O    1.0209299186   -0.0761147985    0.4790700814         -1.1667
O37        O    1.0209299186    0.0209299186    0.5761147985         -1.1606
O38        O    0.9790700814   -0.0761147985    0.5209299186         -1.1653
O39        O    0.9238852015   -0.0209299186    0.5209299186         -1.1644
O40        O    0.9238852015    0.0209299186    0.4790700814         -1.1623
C41        C    1.0000000000    0.0000000000    0.4089954948          0.3556
C42        C    1.0910045052    0.0000000000    0.5000000000          0.3605
C43        C    1.0000000000    0.0910045052    0.5000000000          0.3501
C44        C    1.0000000000    0.0000000000    0.5910045052          0.3539
C45        C    1.0000000000   -0.0910045052    0.5000000000          0.3652
C46        C    0.9089954948    0.0000000000    0.5000000000          0.3557
Zn47      Zn    1.0284789135    0.4715210865   -0.0284789135          1.4972
Zn48      Zn    0.9715210865    0.4715210865    0.0284789135          1.4936
Zn49      Zn    1.0284789135    0.5284789135    0.0284789135          1.4911
Zn50      Zn    0.9715210865    0.5284789135   -0.0284789135          1.4948
O51        O    1.0000000000    0.5000000000    0.0000000000          -2.257
O52        O    1.0209299186    0.4238852015   -0.0209299186         -1.1633
O53        O    0.9790700814    0.4790700814    0.0761147985         -1.1615
O54        O    1.0761147985    0.5209299186    0.0209299186         -1.1566
O55        O    0.9790700814    0.4238852015    0.0209299186         -1.1634
O56        O    1.0761147985    0.4790700814   -0.0209299186         -1.1594
O57        O    1.0209299186    0.5209299186    0.0761147985         -1.1653
O58        O    0.9790700814    0.5761147985   -0.0209299186         -1.1592
O59        O    0.9238852015    0.4790700814    0.0209299186         -1.1667
O60        O    1.0209299186    0.5761147985    0.0209299186         -1.1606
O61        O    0.9238852015    0.5209299186   -0.0209299186         -1.1653
O62        O    0.9790700814    0.5209299186   -0.0761147985         -1.1644
O63        O    1.0209299186    0.4790700814   -0.0761147985         -1.1623
C64        C    1.0000000000    0.4089954948    0.0000000000          0.3556
C65        C    1.0000000000    0.5000000000    0.0910045052          0.3605
C66        C    1.0910045052    0.5000000000    0.0000000000          0.3501
C67        C    1.0000000000    0.5910045052    0.0000000000          0.3539
C68        C    0.9089954948    0.5000000000    0.0000000000          0.3652
C69        C    1.0000000000    0.5000000000   -0.0910045052          0.3557
Zn70      Zn    0.9715210865    0.4715210865    0.5284789135          1.4972
Zn71      Zn    1.0284789135    0.4715210865    0.4715210865          1.4936
Zn72      Zn    0.9715210865    0.5284789135    0.4715210865          1.4911
Zn73      Zn    1.0284789135    0.5284789135    0.5284789135          1.4948
O74        O    1.0000000000    0.5000000000    0.5000000000          -2.257
O75        O    0.9790700814    0.4238852015    0.5209299186         -1.1633
O76        O    1.0209299186    0.4790700814    0.4238852015         -1.1615
O77        O    0.9238852015    0.5209299186    0.4790700814         -1.1566
O78        O    1.0209299186    0.4238852015    0.4790700814         -1.1634
O79        O    0.9238852015    0.4790700814    0.5209299186         -1.1594
O80        O    0.9790700814    0.5209299186    0.4238852015         -1.1653
O81        O    1.0209299186    0.5761147985    0.5209299186         -1.1592
O82        O    1.0761147985    0.4790700814    0.4790700814         -1.1667
O83        O    0.9790700814    0.5761147985    0.4790700814         -1.1606
O84        O    1.0761147985    0.5209299186    0.5209299186         -1.1653
O85        O    1.0209299186    0.5209299186    0.5761147985         -1.1644
O86        O    0.9790700814    0.4790700814    0.5761147985         -1.1623
C87        C    1.0000000000    0.4089954948    0.5000000000          0.3556
C88        C    1.0000000000    0.5000000000    0.4089954948          0.3605
C89        C    0.9089954948    0.5000000000    0.5000000000          0.3501
C90        C    1.0000000000    0.5910045052    0.5000000000          0.3539
C91        C    1.0910045052    0.5000000000    0.5000000000          0.3652
C92        C    1.0000000000    0.5000000000    0.5910045052          0.3557
Zn93      Zn    0.4715210865    0.9715210865   -0.0284789135          1.4972
Zn94      Zn    0.4715210865    1.0284789135    0.0284789135          1.4936
Zn95      Zn    0.5284789135    0.9715210865    0.0284789135          1.4911
Zn96      Zn    0.5284789135    1.0284789135   -0.0284789135          1.4948
O97        O    0.5000000000    1.0000000000    0.0000000000          -2.257
O98        O    0.4238852015    0.9790700814   -0.0209299186         -1.1633
O99        O    0.4790700814    1.0209299186    0.0761147985         -1.1615
O100       O    0.5209299186    0.9238852015    0.0209299186         -1.1566
O101       O    0.4238852015    1.0209299186    0.0209299186         -1.1634
O102       O    0.4790700814    0.9238852015   -0.0209299186         -1.1594
O103       O    0.5209299186    0.9790700814    0.0761147985         -1.1653
O104       O    0.5761147985    1.0209299186   -0.0209299186         -1.1592
O105       O    0.4790700814    1.0761147985    0.0209299186         -1.1667
O106       O    0.5761147985    0.9790700814    0.0209299186         -1.1606
O107       O    0.5209299186    1.0761147985   -0.0209299186         -1.1653
O108       O    0.5209299186    1.0209299186   -0.0761147985         -1.1644
O109       O    0.4790700814    0.9790700814   -0.0761147985         -1.1623
C110       C    0.4089954948    1.0000000000    0.0000000000          0.3556
C111       C    0.5000000000    1.0000000000    0.0910045052          0.3605
C112       C    0.5000000000    0.9089954948    0.0000000000          0.3501
C113       C    0.5910045052    1.0000000000    0.0000000000          0.3539
C114       C    0.5000000000    1.0910045052    0.0000000000          0.3652
C115       C    0.5000000000    1.0000000000   -0.0910045052          0.3557
Zn116     Zn    0.4715210865    1.0284789135    0.5284789135          1.4972
Zn117     Zn    0.4715210865    0.9715210865    0.4715210865          1.4936
Zn118     Zn    0.5284789135    1.0284789135    0.4715210865          1.4911
Zn119     Zn    0.5284789135    0.9715210865    0.5284789135          1.4948
O120       O    0.5000000000    1.0000000000    0.5000000000          -2.257
O121       O    0.4238852015    1.0209299186    0.5209299186         -1.1633
O122       O    0.4790700814    0.9790700814    0.4238852015         -1.1615
O123       O    0.5209299186    1.0761147985    0.4790700814         -1.1566
O124       O    0.4238852015    0.9790700814    0.4790700814         -1.1634
O125       O    0.4790700814    1.0761147985    0.5209299186         -1.1594
O126       O    0.5209299186    1.0209299186    0.4238852015         -1.1653
O127       O    0.5761147985    0.9790700814    0.5209299186         -1.1592
O128       O    0.4790700814    0.9238852015    0.4790700814         -1.1667
O129       O    0.5761147985    1.0209299186    0.4790700814         -1.1606
O130       O    0.5209299186    0.9238852015    0.5209299186         -1.1653
O131       O    0.5209299186    0.9790700814    0.5761147985         -1.1644
O132       O    0.4790700814    1.0209299186    0.5761147985         -1.1623
C133       C    0.4089954948    1.0000000000    0.5000000000          0.3556
C134       C    0.5000000000    1.0000000000    0.4089954948          0.3605
C135       C    0.5000000000    1.0910045052    0.5000000000          0.3501
C136       C    0.5910045052    1.0000000000    0.5000000000          0.3539
C137       C    0.5000000000    0.9089954948    0.5000000000          0.3652
C138       C    0.5000000000    1.0000000000    0.5910045052          0.3557
Zn139     Zn    0.4715210865    0.5284789135   -0.0284789135          1.4972
Zn140     Zn    0.4715210865    0.4715210865    0.0284789135          1.4936
Zn141     Zn    0.5284789135    0.4715210865   -0.0284789135          1.4911
Zn142     Zn    0.5284789135    0.5284789135    0.0284789135          1.4948
O143       O    0.5000000000    0.5000000000    0.0000000000          -2.257
O144       O    0.4238852015    0.5209299186   -0.0209299186         -1.1633
O145       O    0.4790700814    0.4238852015    0.0209299186         -1.1615
O146       O    0.5209299186    0.4790700814   -0.0761147985         -1.1566
O147       O    0.4238852015    0.4790700814    0.0209299186         -1.1634
O148       O    0.4790700814    0.5209299186   -0.0761147985         -1.1594
O149       O    0.5209299186    0.4238852015   -0.0209299186         -1.1653
O150       O    0.5761147985    0.5209299186    0.0209299186         -1.1592
O151       O    0.4790700814    0.4790700814    0.0761147985         -1.1667
O152       O    0.5761147985    0.4790700814   -0.0209299186         -1.1606
O153       O    0.5209299186    0.5209299186    0.0761147985         -1.1653
O154       O    0.5209299186    0.5761147985    0.0209299186         -1.1644
O155       O    0.4790700814    0.5761147985   -0.0209299186         -1.1623
C156       C    0.4089954948    0.5000000000    0.0000000000          0.3556
C157       C    0.5000000000    0.4089954948    0.0000000000          0.3605
C158       C    0.5000000000    0.5000000000   -0.0910045052          0.3501
C159       C    0.5910045052    0.5000000000    0.0000000000          0.3539
C160       C    0.5000000000    0.5000000000    0.0910045052          0.3652
C161       C    0.5000000000    0.5910045052    0.0000000000          0.3557
Zn162     Zn    0.4715210865    0.5284789135    0.4715210865          1.4972
Zn163     Zn    0.4715210865    0.4715210865    0.5284789135          1.4936
Zn164     Zn    0.5284789135    0.4715210865    0.4715210865          1.4911
Zn165     Zn    0.5284789135    0.5284789135    0.5284789135          1.4948
O166       O    0.5000000000    0.5000000000    0.5000000000          -2.257
O167       O    0.4238852015    0.5209299186    0.4790700814         -1.1633
O168       O    0.4790700814    0.4238852015    0.5209299186         -1.1615
O169       O    0.5209299186    0.4790700814    0.4238852015         -1.1566
O170       O    0.4238852015    0.4790700814    0.5209299186         -1.1634
O171       O    0.4790700814    0.5209299186    0.4238852015         -1.1594
O172       O    0.5209299186    0.4238852015    0.4790700814         -1.1653
O173       O    0.5761147985    0.5209299186    0.5209299186         -1.1592
O174       O    0.4790700814    0.4790700814    0.5761147985         -1.1667
O175       O    0.5761147985    0.4790700814    0.4790700814         -1.1606
O176       O    0.5209299186    0.5209299186    0.5761147985         -1.1653
O177       O    0.5209299186    0.5761147985    0.5209299186         -1.1644
O178       O    0.4790700814    0.5761147985    0.4790700814         -1.1623
C179       C    0.4089954948    0.5000000000    0.5000000000          0.3556
C180       C    0.5000000000    0.4089954948    0.5000000000          0.3605
C181       C    0.5000000000    0.5000000000    0.4089954948          0.3501
C182       C    0.5910045052    0.5000000000    0.5000000000          0.3539
C183       C    0.5000000000    0.5000000000    0.5910045052          0.3652
C184       C    0.5000000000    0.5910045052    0.5000000000          0.3557
C806       C    0.5000000000    0.5000000000   -0.1301211006          0.5794
C807       C    0.4998727310    0.4711059365   -0.1489954461          0.5797
C808       C    0.4981542650    0.4706230826   -0.1834815890         -0.4185
C809       C    0.4966344400    0.4991495775   -0.2025538008          -0.417
C810       C    0.4969892393    0.5278753868   -0.1835409846         -0.4175
C811       C    0.4984506215    0.5288717957   -0.1488510912          0.5809
C812       C    0.4914670476    0.4981205610   -0.2434014215         -0.4124
C813       C    0.4974101405    0.4442672247   -0.1935850335         -0.4178
H814       H    0.5007867258    0.4466509614   -0.1357560998          0.5788
C815       C    0.4987862350    0.5635200485   -0.1317098732          0.5805
H816       H    0.4952869834    0.5520051864   -0.1968510506         -0.4159
C817       C    0.4978605270    0.5291525709   -0.2672888598         -0.4173
C818       C    0.5143113755    0.5190933396   -0.3032261156          0.5696
N819       N    0.5045735174    0.4824765696   -0.3004910761          0.5775
N820       N    0.5098623475    0.4727088881   -0.2642694113          0.5727
N821       N    0.5008354302    0.5001109696   -0.3359804858          0.5809
H822       H    0.4979577145    0.4498348461   -0.2615257578         -0.4176
H823       H    0.5225407693    0.4682109365   -0.3125876486          0.5629
H824       H    0.4741219845    0.5430619286   -0.2707615813         -0.3978
H825       H    0.5024183529    0.5406354148   -0.3164595464          0.5795
H826       H    0.5155293448    0.5464249975   -0.2546401516          0.5681
H827       H    0.4645488878    0.4920098821   -0.2467013272         -0.3903
N828       N    0.4949145668    0.4165877254   -0.2020659424         -0.4157
N829       N    0.5000000000    0.5000000000   -0.3698788994          -0.418
H830       H    0.5081293523    0.5626786257   -0.1056464877          0.5726
H831       H    0.4732139918    0.5742913180   -0.1311468374         -0.3985
H832       H    0.5153194903    0.5810506949   -0.1454119393          0.5671
C779       C    0.5000000000    0.5000000000    0.1301211006          0.5794
C780       C    0.5288940635    0.5001272690    0.1489954461          0.5797
C781       C    0.5293769174    0.5018457350    0.1834815890         -0.4185
C782       C    0.5008504225    0.5033655600    0.2025538008          -0.417
C783       C    0.4721246132    0.5030107607    0.1835409846         -0.4175
C784       C    0.4711282043    0.5015493785    0.1488510912          0.5809
C785       C    0.5018794390    0.5085329524    0.2434014215         -0.4124
C786       C    0.5557327753    0.5025898595    0.1935850335         -0.4178
H787       H    0.5533490386    0.4992132742    0.1357560998          0.5788
C788       C    0.4364799515    0.5012137650    0.1317098732          0.5805
H789       H    0.4479948136    0.5047130166    0.1968510506         -0.4159
C790       C    0.4708474291    0.5021394730    0.2672888598         -0.4173
C791       C    0.4809066604    0.4856886245    0.3032261156          0.5696
N792       N    0.5175234304    0.4954264826    0.3004910761          0.5775
N793       N    0.5272911119    0.4901376525    0.2642694113          0.5727
N794       N    0.4998890304    0.4991645698    0.3359804858          0.5809
H795       H    0.5501651539    0.5020422855    0.2615257578         -0.4176
H796       H    0.5317890635    0.4774592307    0.3125876486          0.5629
H797       H    0.4569380714    0.5258780155    0.2707615813         -0.3978
H798       H    0.4593645852    0.4975816471    0.3164595464          0.5795
H799       H    0.4535750025    0.4844706552    0.2546401516          0.5681
H800       H    0.5079901179    0.5354511122    0.2467013272         -0.3903
N801       N    0.5834122746    0.5050854332    0.2020659424         -0.4157
N802       N    0.5000000000    0.5000000000    0.3698788994          -0.418
H803       H    0.4373213743    0.4918706477    0.1056464877          0.5726
H804       H    0.4257086820    0.5267860082    0.1311468374         -0.3985
H805       H    0.4189493051    0.4846805097    0.1454119393          0.5671
C752       C    0.5000000000    0.6301211006    0.5000000000          0.5794
C753       C    0.4980265322    0.6489954461    0.5288268716          0.5797
C754       C    0.4997053516    0.6834815890    0.5294333688         -0.4185
C755       C    0.5032948360    0.7025538008    0.5010928257          -0.417
C756       C    0.5050291446    0.6835409846    0.4724172233         -0.4175
C757       C    0.5036440608    0.6488510912    0.4713172181          0.5809
C758       C    0.5083737549    0.7434014215    0.5024947537         -0.4124
C759       C    0.4985316175    0.6935850335    0.5557735911         -0.4178
H760       H    0.4953372468    0.6357560998    0.5531507064          0.5788
C761       C    0.5058280253    0.6317098732    0.4367362354          0.5805
H762       H    0.5084809677    0.6968510506    0.4484750048         -0.4159
C763       C    0.5042530045    0.7672888598    0.4710800815         -0.4173
C764       C    0.4871144420    0.8032261156    0.4799168359          0.5696
N765       N    0.4941647494    0.8004910761    0.5171446063          0.5775
N766       N    0.4881798683    0.7642694113    0.5265019843          0.5727
N767       N    0.4991748468    0.8359804858    0.4998285939          0.5809
H768       H    0.4983902200    0.7615257578    0.5501808948         -0.4176
H769       H    0.4752080189    0.8125876486    0.5300664017          0.5629
H770       H    0.5289398581    0.7707615813    0.4589331521         -0.3978
H771       H    0.5005419609    0.8164595464    0.4592962945          0.5795
H772       H    0.4878865190    0.7546401516    0.4525689498          0.5681
H773       H    0.5347764944    0.7467013272    0.5105460313         -0.3903
N774       N    0.4990084791    0.7020659424    0.5835612713         -0.4157
N775       N    0.5000000000    0.8698788994    0.5000000000          -0.418
H776       H    0.4964484610    0.6056464877    0.4368962516          0.5726
H777       H    0.5321156108    0.6311468374    0.4278523894         -0.3985
H778       H    0.4906128688    0.6454119393    0.4180501147          0.5671
C725       C    0.5000000000    1.1301211006    0.5000000000          0.5794
C726       C    0.4711059365    1.1489954461    0.5001272690          0.5797
C727       C    0.4706230826    1.1834815890    0.5018457350         -0.4185
C728       C    0.4991495775    1.2025538008    0.5033655600          -0.417
C729       C    0.5278753868    1.1835409846    0.5030107607         -0.4175
C730       C    0.5288717957    1.1488510912    0.5015493785          0.5809
C731       C    0.4981205610    1.2434014215    0.5085329524         -0.4124
C732       C    0.4442672247    1.1935850335    0.5025898595         -0.4178
H733       H    0.4466509614    1.1357560998    0.4992132742          0.5788
C734       C    0.5635200485    1.1317098732    0.5012137650          0.5805
H735       H    0.5520051864    1.1968510506    0.5047130166         -0.4159
C736       C    0.5291525709    1.2672888598    0.5021394730         -0.4173
C737       C    0.5190933396    1.3032261156    0.4856886245          0.5696
N738       N    0.4824765696    1.3004910761    0.4954264826          0.5775
N739       N    0.4727088881    1.2642694113    0.4901376525          0.5727
N740       N    0.5001109696    1.3359804858    0.4991645698          0.5809
H741       H    0.4498348461    1.2615257578    0.5020422855         -0.4176
H742       H    0.4682109365    1.3125876486    0.4774592307          0.5629
H743       H    0.5430619286    1.2707615813    0.5258780155         -0.3978
H744       H    0.5406354148    1.3164595464    0.4975816471          0.5795
H745       H    0.5464249975    1.2546401516    0.4844706552          0.5681
H746       H    0.4920098821    1.2467013272    0.5354511122         -0.3903
N747       N    0.4165877254    1.2020659424    0.5050854332         -0.4157
N748       N    0.5000000000    1.3698788994    0.5000000000          -0.418
H749       H    0.5626786257    1.1056464877    0.4918706477          0.5726
H750       H    0.5742913180    1.1311468374    0.5267860082         -0.3985
H751       H    0.5810506949    1.1454119393    0.4846805097          0.5671
C698       C    0.5000000000    0.8698788994    0.0000000000          0.5794
C699       C    0.4719210359    0.8510045539    0.0068157813          0.5797
C700       C    0.4710395996    0.8165184110    0.0052635753         -0.4185
C701       C    0.4983661798    0.7974461992   -0.0030628164          -0.417
C702       C    0.5263364588    0.8164590154   -0.0096173180         -0.4175
C703       C    0.5276546770    0.8511489088   -0.0084380091          0.5809
C704       C    0.4961262566    0.7565985785   -0.0078318376         -0.4124
C705       C    0.4452764067    0.8064149665    0.0108709684         -0.4178
H706       H    0.4484013124    0.8642439002    0.0135762399          0.5788
C707       C    0.5613694551    0.8682901268   -0.0164334951          0.5805
H708       H    0.5493512118    0.8031489494   -0.0170648715         -0.4159
C709       C    0.5277855149    0.7327111402   -0.0090782651         -0.4173
C710       C    0.5219716030    0.6967738844    0.0093069730          0.5696
N711       N    0.4840878374    0.6995089239    0.0086481649          0.5775
N712       N    0.4758762229    0.7357305887    0.0161280521          0.5727
N713       N    0.5003083624    0.6640195142    0.0007843281          0.5809
H714       H    0.4508125840    0.7384742422    0.0100653717         -0.4176
H715       H    0.4745548219    0.6874123514    0.0295156526          0.5629
H716       H    0.5355866239    0.7292384187   -0.0354625659         -0.3978
H717       H    0.5400269090    0.6835404536   -0.0074116069          0.5795
H718       H    0.5487958371    0.7453598484    0.0039252038          0.5681
H719       H    0.4837296400    0.7532986728   -0.0324945953         -0.3903
N720       N    0.4178076767    0.7979340576    0.0150960649         -0.4157
N721       N    0.5000000000    0.6301211006    0.0000000000          -0.418
H722       H    0.5627965431    0.8943535123   -0.0071617503          0.5726
H723       H    0.5656839312    0.8688531626   -0.0438441713         -0.3985
H724       H    0.5823577180    0.8545880607   -0.0045943685          0.5671
C671       C    0.5000000000    1.1301211006    0.0000000000          0.5794
C672       C    0.5240772022    1.1489954461   -0.0159740864          0.5797
C673       C    0.5235370003    1.1834815890   -0.0176753963         -0.4185
C674       C    0.4988624461    1.2025538008   -0.0032796621          -0.417
C675       C    0.4750508086    1.1835409846    0.0127921739         -0.4175
C676       C    0.4750206443    1.1488510912    0.0145606645          0.5809
C677       C    0.4968846347    1.2434014215   -0.0081632142         -0.4124
C678       C    0.5451542373    1.1935850335   -0.0327710919         -0.4178
H679       H    0.5450164380    1.1357560998   -0.0286401670          0.5788
C680       C    0.4462490177    1.1317098732    0.0338688897          0.5805
H681       H    0.4539504368    1.1968510506    0.0246209194         -0.4159
C682       C    0.4744619357    1.2672888598    0.0142217089         -0.4173
C683       C    0.4919028460    1.3032261156    0.0224456495          0.5696
N684       N    0.5171561625    1.3004910761   -0.0058011862          0.5775
N685       N    0.5282235860    1.2642694113   -0.0067453600          0.5727
N686       N    0.5003660539    1.3359804858    0.0007591195          0.5809
H687       H    0.5408020242    1.2615257578   -0.0292559126         -0.4176
H688       H    0.5389451720    1.3125876486    0.0013800040          0.5629
H689       H    0.4498012551    1.2707615813    0.0020217307         -0.3978
H690       H    0.4673686107    1.3164595464    0.0243367582          0.5795
H691       H    0.4697303427    1.2546401516    0.0384732217          0.5681
H692       H    0.4872087767    1.2467013272   -0.0340148195         -0.3903
N693       N    0.5669158148    1.2020659424   -0.0500573961         -0.4157
N694       N    0.5000000000    1.3698788994    0.0000000000          -0.418
H695       H    0.4520831553    1.1056464877    0.0412149547          0.5726
H696       H    0.4232038611    1.1311468374    0.0184131262         -0.3985
H697       H    0.4406780117    1.1454119393    0.0573132064          0.5671
C644       C    0.5000000000    1.0000000000   -0.3698788994          0.5794
C645       C    0.5288895802    0.9994753484   -0.3510045539          0.5797
C646       C    0.5294110821    1.0011824831   -0.3165184110         -0.4185
C647       C    0.5009261375    1.0033455167   -0.2974461992          -0.417
C648       C    0.4721996354    1.0036388999   -0.3164590154         -0.4175
C649       C    0.4711705094    1.0022003700   -0.3511489088          0.5809
C650       C    0.5020714752    1.0084883778   -0.2565985785         -0.4124
C651       C    0.5557770198    1.0013317953   -0.3064149665         -0.4178
H652       H    0.5533177096    0.9980098498   -0.3642439002          0.5788
C653       C    0.4365235040    1.0026465522   -0.3682901268          0.5805
H654       H    0.4481143828    1.0058851226   -0.3031489494         -0.4159
C655       C    0.4709031189    1.0027966489   -0.2327111402         -0.4173
C656       C    0.4805886369    0.9861230382   -0.1967738844          0.5696
N657       N    0.5174157854    0.9950322950   -0.1995089239          0.5775
N658       N    0.5270616577    0.9895244393   -0.2357305887          0.5727
N659       N    0.4998702102    0.9991672860   -0.1640195142          0.5809
H660       H    0.5501984616    1.0009099736   -0.2384742422         -0.4176
H661       H    0.5312724224    0.9767477650   -0.1874123514          0.5629
H662       H    0.4575328746    1.0268429625   -0.2292384187         -0.3978
H663       H    0.4593203673    0.9984990513   -0.1835404536          0.5795
H664       H    0.4532364570    0.9855220173   -0.2453598484          0.5681
H665       H    0.5087879080    1.0352618209   -0.2532986728         -0.3903
N666       N    0.5835057770    1.0032022477   -0.2979340576         -0.4157
N667       N    0.5000000000    1.0000000000   -0.1301211006          -0.418
H668       H    0.4371539195    0.9932868295   -0.3943535123          0.5726
H669       H    0.4263319197    1.0284553003   -0.3688531626         -0.3985
H670       H    0.4186243077    0.9865130198   -0.3545880607          0.5671
C617       C    0.5000000000    1.0000000000    0.1301211006          0.5794
C618       C    0.5288940635    1.0001272690    0.1489954461          0.5797
C619       C    0.5293769174    1.0018457350    0.1834815890         -0.4185
C620       C    0.5008504225    1.0033655600    0.2025538008          -0.417
C621       C    0.4721246132    1.0030107607    0.1835409846         -0.4175
C622       C    0.4711282043    1.0015493785    0.1488510912          0.5809
C623       C    0.5018794390    1.0085329524    0.2434014215         -0.4124
C624       C    0.5557327753    1.0025898595    0.1935850335         -0.4178
H625       H    0.5533490386    0.9992132742    0.1357560998          0.5788
C626       C    0.4364799515    1.0012137650    0.1317098732          0.5805
H627       H    0.4479948136    1.0047130166    0.1968510506         -0.4159
C628       C    0.4708474291    1.0021394730    0.2672888598         -0.4173
C629       C    0.4809066604    0.9856886245    0.3032261156          0.5696
N630       N    0.5175234304    0.9954264826    0.3004910761          0.5775
N631       N    0.5272911119    0.9901376525    0.2642694113          0.5727
N632       N    0.4998890304    0.9991645698    0.3359804858          0.5809
H633       H    0.5501651539    1.0020422855    0.2615257578         -0.4176
H634       H    0.5317890635    0.9774592307    0.3125876486          0.5629
H635       H    0.4569380714    1.0258780155    0.2707615813         -0.3978
H636       H    0.4593645852    0.9975816471    0.3164595464          0.5795
H637       H    0.4535750025    0.9844706552    0.2546401516          0.5681
H638       H    0.5079901179    1.0354511122    0.2467013272         -0.3903
N639       N    0.5834122746    1.0050854332    0.2020659424         -0.4157
N640       N    0.5000000000    1.0000000000    0.3698788994          -0.418
H641       H    0.4373213743    0.9918706477    0.1056464877          0.5726
H642       H    0.4257086820    1.0267860082    0.1311468374         -0.3985
H643       H    0.4189493051    0.9846805097    0.1454119393          0.5671
C590       C    0.6301211006    0.5000000000    0.5000000000          0.5794
C591       C    0.6489954461    0.5202572938    0.4793959919          0.5797
C592       C    0.6834815890    0.5218249942    0.4802495660         -0.4185
C593       C    0.7025538008    0.5030038253    0.5017398983          -0.417
C594       C    0.6835409846    0.4827010132    0.5220646079         -0.4175
C595       C    0.6488510912    0.4809589990    0.5217582500          0.5809
C596       C    0.7434014215    0.5074227015    0.5046094544         -0.4124
C597       C    0.6935850335    0.5407525567    0.4618938491         -0.4178
H598       H    0.6357560998    0.5366706834    0.4612443574          0.5788
C599       C    0.6317098732    0.4565364525    0.5463377797          0.5805
H600       H    0.6968510506    0.4670790974    0.5405335184         -0.4159
C601       C    0.7672888598    0.4811856398    0.5223711775         -0.4173
C602       C    0.8032261156    0.4764248447    0.5036855311          0.5696
N603       N    0.8004910761    0.5089548176    0.4842583700          0.5775
N604       N    0.7642694113    0.5119843547    0.4735718723          0.5727
N605       N    0.8359804858    0.4993242470    0.4994963971          0.5809
H606       H    0.7615257578    0.5364745728    0.4654989981         -0.4176
H607       H    0.8125876486    0.5060438226    0.4615019086          0.5629
H608       H    0.7707615813    0.4884784711    0.5489004678         -0.3978
H609       H    0.8164595464    0.4699072307    0.5274136937          0.5795
H610       H    0.7546401516    0.4564768886    0.5224093667          0.5681
H611       H    0.7467013272    0.5309653180    0.5190203160         -0.3903
N612       N    0.7020659424    0.5618582550    0.4438125862         -0.4157
N613       N    0.8698788994    0.5000000000    0.5000000000          -0.418
H614       H    0.6056464877    0.4504325235    0.5392143056          0.5726
H615       H    0.6311468374    0.4673326892    0.5718994922         -0.3985
H616       H    0.6454119393    0.4324607278    0.5473534438          0.5671
C563       C    1.1301211006    0.5000000000    0.5000000000          0.5794
C564       C    1.1489954461    0.5202572938    0.4793959919          0.5797
C565       C    1.1834815890    0.5218249942    0.4802495660         -0.4185
C566       C    1.2025538008    0.5030038253    0.5017398983          -0.417
C567       C    1.1835409846    0.4827010132    0.5220646079         -0.4175
C568       C    1.1488510912    0.4809589990    0.5217582500          0.5809
C569       C    1.2434014215    0.5074227015    0.5046094544         -0.4124
C570       C    1.1935850335    0.5407525567    0.4618938491         -0.4178
H571       H    1.1357560998    0.5366706834    0.4612443574          0.5788
C572       C    1.1317098732    0.4565364525    0.5463377797          0.5805
H573       H    1.1968510506    0.4670790974    0.5405335184         -0.4159
C574       C    1.2672888598    0.4811856398    0.5223711775         -0.4173
C575       C    1.3032261156    0.4764248447    0.5036855311          0.5696
N576       N    1.3004910761    0.5089548176    0.4842583700          0.5775
N577       N    1.2642694113    0.5119843547    0.4735718723          0.5727
N578       N    1.3359804858    0.4993242470    0.4994963971          0.5809
H579       H    1.2615257578    0.5364745728    0.4654989981         -0.4176
H580       H    1.3125876486    0.5060438226    0.4615019086          0.5629
H581       H    1.2707615813    0.4884784711    0.5489004678         -0.3978
H582       H    1.3164595464    0.4699072307    0.5274136937          0.5795
H583       H    1.2546401516    0.4564768886    0.5224093667          0.5681
H584       H    1.2467013272    0.5309653180    0.5190203160         -0.3903
N585       N    1.2020659424    0.5618582550    0.4438125862         -0.4157
N586       N    1.3698788994    0.5000000000    0.5000000000          -0.418
H587       H    1.1056464877    0.4504325235    0.5392143056          0.5726
H588       H    1.1311468374    0.4673326892    0.5718994922         -0.3985
H589       H    1.1454119393    0.4324607278    0.5473534438          0.5671
C536       C    0.6301211006    0.5000000000    0.0000000000          0.5794
C537       C    0.6489954461    0.4863794373   -0.0254826093          0.5797
C538       C    0.6834815890    0.4876619237   -0.0267241817         -0.4185
C539       C    0.7025538008    0.5025569687   -0.0023477912          -0.417
C540       C    0.6835409846    0.5158973748    0.0230949202         -0.4175
C541       C    0.6488510912    0.5150851591    0.0246661536          0.5809
C542       C    0.7434014215    0.5066143790   -0.0057090768         -0.4124
C543       C    0.6935850335    0.4757904326   -0.0502667530         -0.4178
H544       H    0.6357560998    0.4739525047   -0.0465646523          0.5788
C545       C    0.6317098732    0.5312572172    0.0553105430          0.5805
H546       H    0.6968510506    0.5288633036    0.0435162228         -0.4159
C547       C    0.7672888598    0.5157377918    0.0246327352         -0.4173
C548       C    0.8032261156    0.4964828241    0.0236008593          0.5696
N549       N    0.8004910761    0.4876476459   -0.0132441316          0.5775
N550       N    0.7642694113    0.4783520218   -0.0193244852          0.5727
N551       N    0.8359804858    0.4993176967    0.0004946920          0.5809
H552       H    0.7615257578    0.4779547901   -0.0451078964         -0.4176
H553       H    0.8125876486    0.4650593024   -0.0172562594          0.5629
H554       H    0.7707615813    0.5432346137    0.0255884654         -0.3978
H555       H    0.8164595464    0.5171851132    0.0369019952          0.5795
H556       H    0.7546401516    0.5084011785    0.0482271826          0.5681
H557       H    0.7467013272    0.5273937895   -0.0238789372         -0.3903
N558       N    0.7020659424    0.4648308449   -0.0758063303         -0.4157
N559       N    0.8698788994    0.5000000000    0.0000000000          -0.418
H560       H    0.6056464877    0.5226368742    0.0590107484          0.5726
H561       H    0.6311468374    0.5588759549    0.0526337545         -0.3985
H562       H    0.6454119393    0.5250424406    0.0785924812          0.5671
C509       C    1.1301211006    0.5000000000    0.0000000000          0.5794
C510       C    1.1489954461    0.4751140450    0.0146823822          0.5797
C511       C    1.1834815890    0.4738195274    0.0134533591         -0.4185
C512       C    1.2025538008    0.4975465357   -0.0024557535          -0.417
C513       C    1.1835409846    0.5224044349   -0.0168565466         -0.4175
C514       C    1.1488510912    0.5240085018   -0.0161112693          0.5809
C515       C    1.2434014215    0.4940172438   -0.0063679036         -0.4124
C516       C    1.1935850335    0.4507981752    0.0263064641         -0.4178
H517       H    1.1357560998    0.4545744432    0.0279867405          0.5788
C518       C    1.1317098732    0.5539441227   -0.0335604143          0.5805
H519       H    1.1968510506    0.5422611682   -0.0306715764         -0.4159
C520       C    1.2672888598    0.5239476090   -0.0167619139         -0.4173
C521       C    1.3032261156    0.5237281170    0.0025194340          0.5696
N522       N    1.3004910761    0.4872882033    0.0128995310          0.5775
N523       N    1.2642694113    0.4816049995    0.0224431425          0.5727
N524       N    1.3359804858    0.5005230070    0.0006608492          0.5809
H525       H    1.2615257578    0.4558612355    0.0239266184         -0.4176
H526       H    1.3125876486    0.4842315864    0.0356368905          0.5629
H527       H    1.2707615813    0.5237436843   -0.0442745845         -0.3978
H528       H    1.3164595464    0.5361449739   -0.0187250160          0.5795
H529       H    1.2546401516    0.5478302834   -0.0104261656          0.5681
H530       H    1.2467013272    0.4749878137   -0.0263631159         -0.3903
N531       N    1.2020659424    0.4257431607    0.0383326362         -0.4157
N532       N    1.3698788994    0.5000000000    0.0000000000          -0.418
H533       H    1.1056464877    0.5580043302   -0.0251036686          0.5726
H534       H    1.1311468374    0.5501057686   -0.0610418063         -0.3985
H535       H    1.1454119393    0.5774672877   -0.0283323359          0.5671
C482       C    1.0000000000    0.5000000000   -0.1301211006          0.5794
C483       C    0.9994481349    0.4711109269   -0.1489954461          0.5797
C484       C    0.9977227587    0.4706533786   -0.1834815890         -0.4185
C485       C    0.9966223061    0.4991991276   -0.2025538008          -0.417
C486       C    0.9973992044    0.5279166210   -0.1835409846         -0.4175
C487       C    0.9988750714    0.5288914467   -0.1488510912          0.5809
C488       C    0.9914403499    0.4982461592   -0.2434014215         -0.4124
C489       C    0.9965914046    0.4443113020   -0.1935850335         -0.4178
H490       H    1.0000026552    0.4466451610   -0.1357560998          0.5788
C491       C    0.9997198187    0.5635310262   -0.1317098732          0.5805
H492       H    0.9960517294    0.5520688304   -0.1968510506         -0.4159
C493       C    0.9982891668    0.5291808633   -0.2672888598         -0.4173
C494       C    1.0145904144    0.5188809664   -0.3032261156          0.5696
N495       N    1.0043155097    0.4824112522   -0.3004910761          0.5775
N496       N    1.0094602287    0.4725669039   -0.2642694113          0.5727
N497       N    1.0008369708    0.5000986807   -0.3359804858          0.5809
H498       H    0.9972207379    0.4498702753   -0.2615257578         -0.4176
H499       H    1.0220711822    0.4678831236   -0.3125876486          0.5629
H500       H    0.9747575912    0.5434375665   -0.2707615813         -0.3978
H501       H    1.0030152455    0.5405954882   -0.3164595464          0.5795
H502       H    1.0162099019    0.5461917744   -0.2546401516          0.5681
H503       H    0.9644352979    0.4925317133   -0.2467013272         -0.3903
N504       N    0.9936893390    0.4166714650   -0.2020659424         -0.4157
N505       N    1.0000000000    0.5000000000   -0.3698788994          -0.418
H506       H    1.0090495620    0.5625523934   -0.1056464877          0.5726
H507       H    0.9743086250    0.5746769270   -0.1311468374         -0.3985
H508       H    1.0165089086    0.5808168167   -0.1454119393          0.5671
C455       C    1.0000000000    0.5000000000    0.1301211006          0.5794
C456       C    0.9711059365    0.4998727310    0.1489954461          0.5797
C457       C    0.9706230826    0.4981542650    0.1834815890         -0.4185
C458       C    0.9991495775    0.4966344400    0.2025538008          -0.417
C459       C    1.0278753868    0.4969892393    0.1835409846         -0.4175
C460       C    1.0288717957    0.4984506215    0.1488510912          0.5809
C461       C    0.9981205610    0.4914670476    0.2434014215         -0.4124
C462       C    0.9442672247    0.4974101405    0.1935850335         -0.4178
H463       H    0.9466509614    0.5007867258    0.1357560998          0.5788
C464       C    1.0635200485    0.4987862350    0.1317098732          0.5805
H465       H    1.0520051864    0.4952869834    0.1968510506         -0.4159
C466       C    1.0291525709    0.4978605270    0.2672888598         -0.4173
C467       C    1.0190933396    0.5143113755    0.3032261156          0.5696
N468       N    0.9824765696    0.5045735174    0.3004910761          0.5775
N469       N    0.9727088881    0.5098623475    0.2642694113          0.5727
N470       N    1.0001109696    0.5008354302    0.3359804858          0.5809
H471       H    0.9498348461    0.4979577145    0.2615257578         -0.4176
H472       H    0.9682109365    0.5225407693    0.3125876486          0.5629
H473       H    1.0430619286    0.4741219845    0.2707615813         -0.3978
H474       H    1.0406354148    0.5024183529    0.3164595464          0.5795
H475       H    1.0464249975    0.5155293448    0.2546401516          0.5681
H476       H    0.9920098821    0.4645488878    0.2467013272         -0.3903
N477       N    0.9165877254    0.4949145668    0.2020659424         -0.4157
N478       N    1.0000000000    0.5000000000    0.3698788994          -0.418
H479       H    1.0626786257    0.5081293523    0.1056464877          0.5726
H480       H    1.0742913180    0.4732139918    0.1311468374         -0.3985
H481       H    1.0810506949    0.5153194903    0.1454119393          0.5671
C428       C    1.0000000000   -0.1301211006    0.5000000000          0.5794
C429       C    1.0288940635   -0.1489954461    0.5001272690          0.5797
C430       C    1.0293769174   -0.1834815890    0.5018457350         -0.4185
C431       C    1.0008504225   -0.2025538008    0.5033655600          -0.417
C432       C    0.9721246132   -0.1835409846    0.5030107607         -0.4175
C433       C    0.9711282043   -0.1488510912    0.5015493785          0.5809
C434       C    1.0018794390   -0.2434014215    0.5085329524         -0.4124
C435       C    1.0557327753   -0.1935850335    0.5025898595         -0.4178
H436       H    1.0533490386   -0.1357560998    0.4992132742          0.5788
C437       C    0.9364799515   -0.1317098732    0.5012137650          0.5805
H438       H    0.9479948136   -0.1968510506    0.5047130166         -0.4159
C439       C    0.9708474291   -0.2672888598    0.5021394730         -0.4173
C440       C    0.9809066604   -0.3032261156    0.4856886245          0.5696
N441       N    1.0175234304   -0.3004910761    0.4954264826          0.5775
N442       N    1.0272911119   -0.2642694113    0.4901376525          0.5727
N443       N    0.9998890304   -0.3359804858    0.4991645698          0.5809
H444       H    1.0501651539   -0.2615257578    0.5020422855         -0.4176
H445       H    1.0317890635   -0.3125876486    0.4774592307          0.5629
H446       H    0.9569380714   -0.2707615813    0.5258780155         -0.3978
H447       H    0.9593645852   -0.3164595464    0.4975816471          0.5795
H448       H    0.9535750025   -0.2546401516    0.4844706552          0.5681
H449       H    1.0079901179   -0.2467013272    0.5354511122         -0.3903
N450       N    1.0834122746   -0.2020659424    0.5050854332         -0.4157
N451       N    1.0000000000   -0.3698788994    0.5000000000          -0.418
H452       H    0.9373213743   -0.1056464877    0.4918706477          0.5726
H453       H    0.9257086820   -0.1311468374    0.5267860082         -0.3985
H454       H    0.9189493051   -0.1454119393    0.4846805097          0.5671
C401       C    1.0000000000    0.3698788994    0.5000000000          0.5794
C402       C    0.9989943343    0.3510045539    0.4711231626          0.5797
C403       C    1.0006925480    0.3165184110    0.4705733047         -0.4185
C404       C    1.0033296302    0.2974461992    0.4990182794          -0.417
C405       C    1.0041013438    0.3164590154    0.5277359126         -0.4175
C406       C    1.0026801510    0.3511489088    0.5287888511          0.5809
C407       C    1.0084527053    0.2565985785    0.4977874584         -0.4124
C408       C    1.0004027779    0.3064149665    0.4442085367         -0.4178
H409       H    0.9971222469    0.3642439002    0.4467228249          0.5788
C410       C    1.0037032343    0.3682901268    0.5634236221          0.5805
H411       H    1.0067483373    0.3031489494    0.5517804199         -0.4159
C412       C    1.0032808000    0.2327111402    0.5290462749         -0.4173
C413       C    0.9864482122    0.1967738844    0.5196397590          0.5696
N414       N    0.9947429657    0.1995089239    0.4826693548          0.5775
N415       N    0.9890752448    0.2357305887    0.4731165402          0.5727
N416       N    0.9991695629    0.1640195142    0.5001436387          0.5809
H417       H    1.0000739122    0.2384742422    0.4497933457         -0.4176
H418       H    0.9762302219    0.1874123514    0.4691191243          0.5629
H419       H    1.0275464287    0.2292384187    0.5420142315         -0.3978
H420       H    0.9991766813    0.1835404536    0.5406989866          0.5795
H421       H    0.9863027597    0.2453598484    0.5469981547          0.5681
H422       H    1.0351105898    0.2532986728    0.4906261094         -0.3903
N423       N    1.0018112149    0.2979340576    0.4164524765         -0.4157
N424       N    1.0000000000    0.1301211006    0.5000000000          -0.418
H425       H    0.9943343114    0.3943535123    0.5629491578          0.5726
H426       H    1.0296781201    0.3688531626    0.5731840103         -0.3985
H427       H    0.9878700072    0.3545880607    0.5815890017          0.5671
C374       C    0.8698788994   -0.0000000000    0.5000000000          0.5794
C375       C    0.8510045539    0.0287022387    0.4966736511          0.5797
C376       C    0.8165184110    0.0289918116    0.4949122821         -0.4185
C377       C    0.7974461992    0.0004724737    0.4965609622          -0.417
C378       C    0.8164590154   -0.0280373479    0.5000948086         -0.4175
C379       C    0.8511489088   -0.0288657876    0.5016575486          0.5809
C380       C    0.7565985785    0.0009228996    0.4913113969         -0.4124
C381       C    0.8064149665    0.0551031440    0.4912539646         -0.4178
H382       H    0.8642439002    0.0531080086    0.4948737663          0.5788
C383       C    0.8682901268   -0.0632637479    0.5058282061          0.5805
H384       H    0.8031489494   -0.0522072384    0.5010752695         -0.4159
C385       C    0.7327111402   -0.0292101855    0.5011021782         -0.4173
C386       C    0.6967738844   -0.0173909862    0.5163378298          0.5696
N387       N    0.6995089239    0.0179221344    0.5026047591          0.5775
N388       N    0.7357305887    0.0282154435    0.5067793387          0.5727
N389       N    0.6640195142   -0.0000177676    0.5008425807          0.5809
H390       H    0.7384742422    0.0496304106    0.4924147547         -0.4176
H391       H    0.6874123514    0.0340897950    0.5188816501          0.5629
H392       H    0.7292384187   -0.0456629017    0.4790500408         -0.3978
H393       H    0.6835404536   -0.0401176424    0.5069036318          0.5795
H394       H    0.7453598484   -0.0444196406    0.5205751419          0.5681
H395       H    0.7532986728    0.0040149490    0.4638820886         -0.3903
N396       N    0.7979340576    0.0823360124    0.4857083853         -0.4157
N397       N    0.6301211006   -0.0000000000    0.5000000000          -0.418
H398       H    0.8943535123   -0.0613928007    0.5150206698          0.5726
H399       H    0.8688531626   -0.0768007512    0.4816061209         -0.3985
H400       H    0.8545880607   -0.0788555920    0.5242011888          0.5671
C347       C    1.1301211006   -0.0000000000    0.5000000000          0.5794
C348       C    1.1489954461    0.0050449964    0.4715494971          0.5797
C349       C    1.1834815890    0.0068205826    0.4713662844         -0.4185
C350       C    1.2025538008    0.0034612137    0.4997350247          -0.417
C351       C    1.1835409846   -0.0017793433    0.5279809901         -0.4175
C352       C    1.1488510912   -0.0033890388    0.5287140310          0.5809
C353       C    1.2434014215    0.0087283587    0.4996008482         -0.4124
C354       C    1.1935850335    0.0120412655    0.4455219536         -0.4178
H355       H    1.1357560998    0.0083081210    0.4472959776          0.5788
C356       C    1.1317098732   -0.0096190623    0.5627992311          0.5805
H357       H    1.1968510506   -0.0042103511    0.5520482938         -0.4159
C358       C    1.2672888598   -0.0028553660    0.5290911777         -0.4173
C359       C    1.3032261156   -0.0173532970    0.5163778560          0.5696
N360       N    1.3004910761   -0.0015231487    0.4819537347          0.5775
N361       N    1.2642694113   -0.0050716816    0.4714281829          0.5727
N362       N    1.3359804858   -0.0008421259    0.4999671066          0.5809
H363       H    1.2615257578    0.0105537277    0.4509150488         -0.4176
H364       H    1.3125876486   -0.0167991477    0.4648372431          0.5629
H365       H    1.2707615813    0.0181683155    0.5468392324         -0.3978
H366       H    1.3164595464   -0.0093017434    0.5396303285          0.5795
H367       H    1.2546401516   -0.0232070484    0.5431030607          0.5681
H368       H    1.2467013272    0.0362938995    0.4981625559         -0.3903
N369       N    1.2020659424    0.0192131911    0.4186715150         -0.4157
N370       N    1.3698788994   -0.0000000000    0.5000000000          -0.418
H371       H    1.1056464877   -0.0186824947    0.5603793084          0.5726
H372       H    1.1311468374    0.0137458454    0.5777672290         -0.3985
H373       H    1.1454119393   -0.0288957282    0.5772589077          0.5671
C320       C   -0.0000000000   -0.1301211006    0.0000000000          0.5794
C321       C    0.0119703926   -0.1489954461    0.0262981521          0.5797
C322       C    0.0106114550   -0.1834815890    0.0274555466         -0.4185
C323       C   -0.0027012692   -0.2025538008    0.0021802195          -0.417
C324       C   -0.0143946141   -0.1835409846   -0.0240602775         -0.4175
C325       C   -0.0134840027   -0.1488510912   -0.0255766071          0.5809
C326       C   -0.0069644667   -0.2434014215    0.0052763407         -0.4124
C327       C    0.0209598515   -0.1935850335    0.0517062302         -0.4178
H328       H    0.0230297706   -0.1357560998    0.0481286663          0.5788
C329       C   -0.0276720517   -0.1317098732   -0.0571885245          0.5805
H330       H   -0.0260339653   -0.1968510506   -0.0452657110         -0.4159
C331       C   -0.0141374389   -0.2672888598   -0.0255848110         -0.4173
C332       C    0.0050127563   -0.3032261156   -0.0233290240          0.5696
N333       N    0.0114840075   -0.3004910761    0.0140037583          0.5775
N334       N    0.0203736203   -0.2642694113    0.0206636464          0.5727
N335       N    0.0007124169   -0.3359804858   -0.0004502445          0.5809
H336       H    0.0191283611   -0.2615257578    0.0464200323         -0.4176
H337       H    0.0337710554   -0.3125876486    0.0194459932          0.5629
H338       H   -0.0415176128   -0.2707615813   -0.0282893833         -0.3978
H339       H   -0.0148006134   -0.3164595464   -0.0379213292          0.5795
H340       H   -0.0053134037   -0.2546401516   -0.0486642444          0.5681
H341       H   -0.0288586269   -0.2467013272    0.0220862626         -0.3903
N342       N    0.0302710413   -0.2020659424    0.0778918047         -0.4157
N343       N   -0.0000000000   -0.3698788994    0.0000000000          -0.418
H344       H   -0.0188336006   -0.1056464877   -0.0603323461          0.5726
H345       H   -0.0554051843   -0.1311468374   -0.0562757117         -0.3985
H346       H   -0.0199874750   -0.1454119393   -0.0800275126          0.5671
C293       C    0.0000000000    0.1301211006    0.0000000000          0.5794
C294       C    0.0288341464    0.1489954461   -0.0018641626          0.5797
C295       C    0.0292128120    0.1834815890   -0.0036085495         -0.4185
C296       C    0.0006465452    0.2025538008   -0.0034105999          -0.417
C297       C   -0.0280059721    0.1835409846   -0.0013294341         -0.4175
C298       C   -0.0289127197    0.1488510912    0.0001892092          0.5809
C299       C    0.0013630344    0.2434014215   -0.0086305101         -0.4124
C300       C    0.0554762584    0.1935850335   -0.0059358538         -0.4178
H301       H    0.0532998354    0.1357560998   -0.0024220651          0.5788
C302       C   -0.0634781211    0.1317098732    0.0026072838          0.5805
H303       H   -0.0521944645    0.1968510506   -0.0015779167         -0.4159
C304       C   -0.0292284637    0.2672888598   -0.0003829376         -0.4173
C305       C   -0.0181983960    0.3032261156    0.0154333881          0.5696
N306       N    0.0177666947    0.3004910761    0.0035117281          0.5775
N307       N    0.0278346745    0.2642694113    0.0082037541          0.5727
N308       N   -0.0000605425    0.3359804858    0.0008405906          0.5809
H309       H    0.0499516286    0.2615257578   -0.0050545425         -0.4176
H310       H    0.0330867222    0.3125876486    0.0205888235          0.5629
H311       H   -0.0445398329    0.2707615813   -0.0232423034         -0.3978
H312       H   -0.0404165182    0.3164595464    0.0048569974          0.5795
H313       H   -0.0454073897    0.2546401516    0.0182923455          0.5681
H314       H    0.0058443283    0.2467013272   -0.0358673552         -0.3903
N315       N    0.0829556542    0.2020659424   -0.0100910170         -0.4157
N316       N    0.0000000000    0.3698788994    0.0000000000          -0.418
H317       H   -0.0620765080    0.1056464877    0.0118829139          0.5726
H318       H   -0.0757673213    0.1311468374   -0.0222711290         -0.3985
H319       H   -0.0799830702    0.1454119393    0.0201645829          0.5671
C266       C   -0.1301211006   -0.0000000000    0.0000000000          0.5794
C267       C   -0.1489954461    0.0119269946   -0.0263178628          0.5797
C268       C   -0.1834815890    0.0105661497   -0.0274730140         -0.4185
C269       C   -0.2025538008   -0.0027048620   -0.0021757605          -0.417
C270       C   -0.1835409846   -0.0143549045    0.0240839902         -0.4175
C271       C   -0.1488510912   -0.0134417929    0.0255988156          0.5809
C272       C   -0.2434014215   -0.0069731612   -0.0052648449         -0.4124
C273       C   -0.1935850335    0.0208745279   -0.0517407354         -0.4178
H274       H   -0.1357560998    0.0229503459   -0.0481665909          0.5788
C275       C   -0.1317098732   -0.0275776754    0.0572340948          0.5805
H276       H   -0.1968510506   -0.0259592592    0.0453085953         -0.4159
C277       C   -0.2672888598   -0.0140952148    0.0256080974         -0.4173
C278       C   -0.3032261156    0.0050512332    0.0233207232          0.5696
N279       N   -0.3004910761    0.0114608911   -0.0140226833          0.5775
N280       N   -0.2642694113    0.0203395057   -0.0206972268          0.5727
N281       N   -0.3359804858    0.0007131586    0.0004490687          0.5809
H282       H   -0.2615257578    0.0190517602   -0.0464515235         -0.4176
H283       H   -0.3125876486    0.0337389312   -0.0195016757          0.5629
H284       H   -0.2707615813   -0.0414708899    0.0283578326         -0.3978
H285       H   -0.3164595464   -0.0147380380    0.0379456928          0.5795
H286       H   -0.2546401516   -0.0052331195    0.0486729432          0.5681
H287       H   -0.2467013272   -0.0288950213   -0.0220386271         -0.3903
N288       N   -0.2020659424    0.0301425091   -0.0779416341         -0.4157
N289       N   -0.3698788994   -0.0000000000    0.0000000000          -0.418
H290       H   -0.1056464877   -0.0187340502    0.0603633321          0.5694
H291       H   -0.1311468374   -0.0553122760    0.0563670320         -0.3985
H292       H   -0.1454119393   -0.0198554337    0.0800603752          0.5671
C239       C    0.1301211006   -0.0000000000    0.0000000000          0.5794
C240       C    0.1489954461    0.0286400217    0.0038252137          0.5797
C241       C    0.1834815890    0.0288989061    0.0055913542         -0.4185
C242       C    0.2025538008    0.0004125690    0.0034467375          -0.417
C243       C    0.1835409846   -0.0280314547   -0.0005825946         -0.4175
C244       C    0.1488510912   -0.0288325800   -0.0021595115          0.5809
C245       C    0.2434014215    0.0007715935    0.0087033448         -0.4124
C246       C    0.1935850335    0.0549426379    0.0097034091         -0.4178
H247       H    0.1357560998    0.0530107827    0.0060494435          0.5788
C248       C    0.1317098732   -0.0631527718   -0.0069280016          0.5805
H249       H    0.1968510506   -0.0521806284   -0.0019834206         -0.4159
C250       C    0.2672888598   -0.0291865883   -0.0016102171         -0.4173
C251       C    0.3032261156   -0.0171041045   -0.0166379294          0.5696
N252       N    0.3004910761    0.0179647400   -0.0022925513          0.5775
N253       N    0.2642694113    0.0283291214   -0.0062874136          0.5727
N254       N    0.3359804858   -0.0000031055   -0.0008427623          0.5809
H255       H    0.2615257578    0.0494909286    0.0084475788         -0.4176
H256       H    0.3125876486    0.0344131426   -0.0182856899          0.5629
H257       H    0.2707615813   -0.0460204825    0.0201523342         -0.3978
H258       H    0.3164595464   -0.0399914591   -0.0076005631          0.5795
H259       H    0.2546401516   -0.0440549461   -0.0213448511          0.5681
H260       H    0.2467013272    0.0033859534    0.0361822976         -0.3903
N261       N    0.2020659424    0.0820749010    0.0157219530         -0.4157
N262       N    0.3698788994   -0.0000000000    0.0000000000          -0.418
H263       H    0.1056464877   -0.0611221750   -0.0160865227          0.5726
H264       H    0.1311468374   -0.0771091476    0.0170548974         -0.3985
H265       H    0.1454119393   -0.0784225983   -0.0255694739          0.5671
C212       C    0.0000000000    0.0000000000   -0.1301211006          0.5794
C213       C    0.0005283049    0.0288895136   -0.1489954461          0.5797
C214       C    0.0022533074    0.0293484688   -0.1834815890         -0.4185
C215       C    0.0033770396    0.0008036267   -0.2025538008          -0.417
C216       C    0.0026235617   -0.0279144907   -0.1835409846         -0.4175
C217       C    0.0011484901   -0.0288905197   -0.1488510912          0.5809
C218       C    0.0085582170    0.0017608209   -0.2434014215         -0.4124
C219       C    0.0033631783    0.0556914593   -0.1935850335         -0.4178
H220       H   -0.0000461679    0.0533548191   -0.1357560998          0.5788
C221       C    0.0003319929   -0.0635307765   -0.1317098732          0.5805
H222       H    0.0039907331   -0.0520655932   -0.1968510506         -0.4159
C223       C    0.0017346307   -0.0291794584   -0.2672888598         -0.4173
C224       C   -0.0145750115   -0.0188928591   -0.3032261156          0.5696
N225       N   -0.0043298524    0.0175852225   -0.3004910761          0.5775
N226       N   -0.0094825981    0.0274253718   -0.2642694113          0.5727
N227       N   -0.0008368900   -0.0000993632   -0.3359804858          0.5809
H228       H    0.0027383787    0.0501319746   -0.2615257578         -0.4176
H229       H   -0.0220973672    0.0320988660   -0.3125876486          0.5629
H230       H    0.0252778252   -0.0434169660   -0.2707615813         -0.3978
H231       H   -0.0029821375   -0.0405979337   -0.3164595464          0.5795
H232       H   -0.0161722256   -0.0462049788   -0.2546401516          0.5681
H233       H    0.0355585996    0.0074972884   -0.2467013272         -0.3903
N234       N    0.0062427016    0.0833336538   -0.2020659424         -0.4157
N235       N    0.0000000000    0.0000000000   -0.3698788994          -0.418
H236       H   -0.0089985454   -0.0625597528   -0.1056464877          0.5726
H237       H    0.0257522680   -0.0746559500   -0.1311468374         -0.3985
H238       H   -0.0164429943   -0.0808302534   -0.1454119393          0.5671
C185       C   -0.0000000000    0.0000000000    0.3698788994          0.5794
C186       C   -0.0044672504   -0.0285469224    0.3510045539          0.5797
C187       C   -0.0062387579   -0.0287660897    0.3165184110         -0.4185
C188       C   -0.0034551313   -0.0003350818    0.2974461992          -0.417
C189       C    0.0012117856    0.0280113092    0.3164590154         -0.4175
C190       C    0.0028062911    0.0287768290    0.3511489088          0.5809
C191       C   -0.0087184742   -0.0005759991    0.2565985785         -0.4124
C192       C   -0.0109344875   -0.0547109367    0.3064149665         -0.4178
H193       H   -0.0072380706   -0.0528616041    0.3642439002          0.5788
C194       C    0.0083441063    0.0629813121    0.3682901268          0.5805
H195       H    0.0031544346    0.0521229458    0.3031489494         -0.4159
C196       C    0.0022650830    0.0291430803    0.2327111402         -0.4173
C197       C    0.0170177421    0.0167262530    0.1967738844          0.5696
N198       N    0.0018886448   -0.0180116822    0.1995089239          0.5775
N199       N    0.0056498081   -0.0284631403    0.2357305887          0.5727
N200       N    0.0008426196   -0.0000158162    0.1640195142          0.5809
H201       H   -0.0095565767   -0.0492887963    0.2384742422         -0.4176
H202       H    0.0175084669   -0.0348150028    0.1874123514          0.5629
H203       H   -0.0191140429    0.0464613253    0.2292384187         -0.3978
H204       H    0.0084965007    0.0398107377    0.1835404536          0.5795
H205       H    0.0223285542    0.0435646257    0.2453598484          0.5681
H206       H   -0.0362491961   -0.0025727665    0.2532986728         -0.3903
N207       N   -0.0175606643   -0.0817012378    0.2979340576         -0.4157
N208       N   -0.0000000000    0.0000000000    0.1301211006          -0.418
H209       H    0.0174547298    0.0607456081    0.3943535123          0.5726
H210       H   -0.0153194112    0.0774726133    0.3688531626         -0.3985
H211       H    0.0273237048    0.0778287677    0.3545880607          0.5671
loop_
_geom_bond_atom_site_label_1
_geom_bond_atom_site_label_2
_geom_bond_distance
_geom_bond_site_symmetry_2
_ccdc_geom_bond_type
Zn1          O5 1.942       .   S
Zn1          O6 1.922       .   S
Zn1         O10 1.922       .   S
Zn1         O17 1.922       .   S
Zn2          O5 1.942       .   S
Zn2          O7 1.922       .   S
Zn2          O9 1.922       .   S
Zn2         O13 1.922       .   S
Zn3          O5 1.942       .   S
Zn3          O8 1.922       .   S
Zn3         O11 1.922       .   S
Zn3         O14 1.922       .   S
Zn4          O5 1.942       .   S
Zn4         O12 1.922       .   S
Zn4         O15 1.922       .   S
Zn4         O16 1.922       .   S
O6          C18 1.304       .   A
O7          C19 1.304       .   A
O8          C20 1.304       .   A
O9          C18 1.304       .   A
O10         C20 1.304       .   A
O11         C19 1.304       .   A
O12         C21 1.304       .   A
O13         C22 1.304       .   A
O14         C21 1.304       .   A
O15         C22 1.304       .   A
O16         C23 1.304       .   A
O17         C23 1.304       .   A
C18        N208 1.540       .   S
C19        C239 1.540       .   S
C20        C320 1.540       .   S
C21        C212 1.540       .   S
C22        C293 1.540       .   S
C23        C266 1.540       .   S
Zn24        O28 1.942       .   S
Zn24        O29 1.922       .   S
Zn24        O33 1.922       .   S
Zn24        O40 1.922       .   S
Zn25        O28 1.942       .   S
Zn25        O30 1.922       .   S
Zn25        O32 1.922       .   S
Zn25        O36 1.922       .   S
Zn26        O28 1.942       .   S
Zn26        O31 1.922       .   S
Zn26        O34 1.922       .   S
Zn26        O37 1.922       .   S
Zn27        O28 1.942       .   S
Zn27        O35 1.922       .   S
Zn27        O38 1.922       .   S
Zn27        O39 1.922       .   S
O29         C41 1.304       .   A
O30         C42 1.304       .   A
O31         C43 1.304       .   A
O32         C41 1.304       .   A
O33         C43 1.304       .   A
O34         C42 1.304       .   A
O35         C44 1.304       .   A
O36         C45 1.304       .   A
O37         C44 1.304       .   A
O38         C45 1.304       .   A
O39         C46 1.304       .   A
O40         C46 1.304       .   A
C41        C185 1.540   1_655   S
C42        C347 1.540       .   S
C43        N424 1.540       .   S
C44        N235 1.540   1_656   S
C45        C428 1.540       .   S
C46        C374 1.540       .   S
Zn47        O51 1.942       .   S
Zn47        O52 1.922       .   S
Zn47        O56 1.922       .   S
Zn47        O63 1.922       .   S
Zn48        O51 1.942       .   S
Zn48        O53 1.922       .   S
Zn48        O55 1.922       .   S
Zn48        O59 1.922       .   S
Zn49        O51 1.942       .   S
Zn49        O54 1.922       .   S
Zn49        O57 1.922       .   S
Zn49        O60 1.922       .   S
Zn50        O51 1.942       .   S
Zn50        O58 1.922       .   S
Zn50        O61 1.922       .   S
Zn50        O62 1.922       .   S
O52         C64 1.304       .   A
O53         C65 1.304       .   A
O54         C66 1.304       .   A
O55         C64 1.304       .   A
O56         C66 1.304       .   A
O57         C65 1.304       .   A
O58         C67 1.304       .   A
O59         C68 1.304       .   A
O60         C67 1.304       .   A
O61         C68 1.304       .   A
O62         C69 1.304       .   A
O63         C69 1.304       .   A
C64        N316 1.540   1_655   S
C65        C455 1.540       .   S
C66        C509 1.540       .   S
C67        N343 1.540   1_665   S
C68        N559 1.540       .   S
C69        C482 1.540       .   S
Zn70        O74 1.942       .   S
Zn70        O75 1.922       .   S
Zn70        O79 1.922       .   S
Zn70        O86 1.922       .   S
Zn71        O74 1.942       .   S
Zn71        O76 1.922       .   S
Zn71        O78 1.922       .   S
Zn71        O82 1.922       .   S
Zn72        O74 1.942       .   S
Zn72        O77 1.922       .   S
Zn72        O80 1.922       .   S
Zn72        O83 1.922       .   S
Zn73        O74 1.942       .   S
Zn73        O81 1.922       .   S
Zn73        O84 1.922       .   S
Zn73        O85 1.922       .   S
O75         C87 1.304       .   A
O76         C88 1.304       .   A
O77         C89 1.304       .   A
O78         C87 1.304       .   A
O79         C89 1.304       .   A
O80         C88 1.304       .   A
O81         C90 1.304       .   A
O82         C91 1.304       .   A
O83         C90 1.304       .   A
O84         C91 1.304       .   A
O85         C92 1.304       .   A
O86         C92 1.304       .   A
C87        C401 1.540       .   S
C88        N478 1.540       .   S
C89        N613 1.540       .   S
C90        N451 1.540   1_565   S
C91        C563 1.540       .   S
C92        N505 1.540   1_556   S
Zn93        O97 1.942       .   S
Zn93        O98 1.922       .   S
Zn93       O102 1.922       .   S
Zn93       O109 1.922       .   S
Zn94        O97 1.942       .   S
Zn94        O99 1.922       .   S
Zn94       O101 1.922       .   S
Zn94       O105 1.922       .   S
Zn95        O97 1.942       .   S
Zn95       O100 1.922       .   S
Zn95       O103 1.922       .   S
Zn95       O106 1.922       .   S
Zn96        O97 1.942       .   S
Zn96       O104 1.922       .   S
Zn96       O107 1.922       .   S
Zn96       O108 1.922       .   S
O98        C110 1.304       .   A
O99        C111 1.304       .   A
O100       C112 1.304       .   A
O101       C110 1.304       .   A
O102       C112 1.304       .   A
O103       C111 1.304       .   A
O104       C113 1.304       .   A
O105       C114 1.304       .   A
O106       C113 1.304       .   A
O107       C114 1.304       .   A
O108       C115 1.304       .   A
O109       C115 1.304       .   A
C110       N262 1.540   1_565   S
C111       C617 1.540       .   S
C112       C698 1.540       .   S
C113       N289 1.540   1_665   S
C114       C671 1.540       .   S
C115       N667 1.540       .   S
Zn116      O120 1.942       .   S
Zn116      O121 1.922       .   S
Zn116      O125 1.922       .   S
Zn116      O132 1.922       .   S
Zn117      O120 1.942       .   S
Zn117      O122 1.922       .   S
Zn117      O124 1.922       .   S
Zn117      O128 1.922       .   S
Zn118      O120 1.942       .   S
Zn118      O123 1.922       .   S
Zn118      O126 1.922       .   S
Zn118      O129 1.922       .   S
Zn119      O120 1.942       .   S
Zn119      O127 1.922       .   S
Zn119      O130 1.922       .   S
Zn119      O131 1.922       .   S
O121       C133 1.304       .   A
O122       C134 1.304       .   A
O123       C135 1.304       .   A
O124       C133 1.304       .   A
O125       C135 1.304       .   A
O126       C134 1.304       .   A
O127       C136 1.304       .   A
O128       C137 1.304       .   A
O129       C136 1.304       .   A
O130       C137 1.304       .   A
O131       C138 1.304       .   A
O132       C138 1.304       .   A
C133       N370 1.540   1_465   S
C134       N640 1.540       .   S
C135       C725 1.540       .   S
C136       N397 1.540   1_565   S
C137       N775 1.540       .   S
C138       C644 1.540   1_556   S
Zn139      O143 1.942       .   S
Zn139      O144 1.922       .   S
Zn139      O148 1.922       .   S
Zn139      O155 1.922       .   S
Zn140      O143 1.942       .   S
Zn140      O145 1.922       .   S
Zn140      O147 1.922       .   S
Zn140      O151 1.922       .   S
Zn141      O143 1.942       .   S
Zn141      O146 1.922       .   S
Zn141      O149 1.922       .   S
Zn141      O152 1.922       .   S
Zn142      O143 1.942       .   S
Zn142      O150 1.922       .   S
Zn142      O153 1.922       .   S
Zn142      O154 1.922       .   S
O144       C156 1.304       .   A
O145       C157 1.304       .   A
O146       C158 1.304       .   A
O147       C156 1.304       .   A
O148       C158 1.304       .   A
O149       C157 1.304       .   A
O150       C159 1.304       .   A
O151       C160 1.304       .   A
O152       C159 1.304       .   A
O153       C160 1.304       .   A
O154       C161 1.304       .   A
O155       C161 1.304       .   A
C156       N532 1.540   1_455   S
C157       N694 1.540   1_545   S
C158       C806 1.540       .   S
C159       C536 1.540       .   S
C160       C779 1.540       .   S
C161       N721 1.540       .   S
Zn162      O166 1.942       .   S
Zn162      O167 1.922       .   S
Zn162      O171 1.922       .   S
Zn162      O178 1.922       .   S
Zn163      O166 1.942       .   S
Zn163      O168 1.922       .   S
Zn163      O170 1.922       .   S
Zn163      O174 1.922       .   S
Zn164      O166 1.942       .   S
Zn164      O169 1.922       .   S
Zn164      O172 1.922       .   S
Zn164      O175 1.922       .   S
Zn165      O166 1.942       .   S
Zn165      O173 1.922       .   S
Zn165      O176 1.922       .   S
Zn165      O177 1.922       .   S
O167       C179 1.304       .   A
O168       C180 1.304       .   A
O169       C181 1.304       .   A
O170       C179 1.304       .   A
O171       C181 1.304       .   A
O172       C180 1.304       .   A
O173       C182 1.304       .   A
O174       C183 1.304       .   A
O175       C182 1.304       .   A
O176       C183 1.304       .   A
O177       C184 1.304       .   A
O178       C184 1.304       .   A
C179       N586 1.540   1_455   S
C180       N748 1.540   1_545   S
C181       N802 1.540       .   S
C182       C590 1.540       .   S
C183       N829 1.540   1_556   S
C184       C752 1.540       .   S
C806       C807 0.028       .   A
C806       C811 0.028       .   A
C807       C808 0.028       .   A
C807       H814 0.023       .   A
C808       C809 0.028       .   A
C808       C813 0.023       .   A
C809       C810 0.028       .   A
C809       C812 0.034       .   A
C810       C811 0.028       .   A
C810       H816 0.023       .   A
C811       C815 0.032       .   A
C812       C817 0.033       .   A
C812       N820 0.031       .   A
C812       H827 0.023       .   A
C813       N828 0.024       .   A
C815       H830 0.023       .   A
C815       H831 0.023       .   A
C815       H832 0.023       .   A
C817       C818 0.033       .   A
C817       H824 0.023       .   A
C817       H826 0.023       .   A
C818       N819 0.031       .   A
C818       N821 0.033       .   A
C818       H825 0.023       .   A
N819       N820 0.031       .   A
N819       H823 0.021       .   A
N820       H822 0.021       .   A
N821       N829 0.028       .   A
C779       C780 0.028       .   A
C779       C784 0.028       .   A
C780       C781 0.028       .   A
C780       H787 0.023       .   A
C781       C782 0.028       .   A
C781       C786 0.023       .   A
C782       C783 0.028       .   A
C782       C785 0.034       .   A
C783       C784 0.028       .   A
C783       H789 0.023       .   A
C784       C788 0.032       .   A
C785       C790 0.033       .   A
C785       N793 0.031       .   A
C785       H800 0.023       .   A
C786       N801 0.024       .   A
C788       H803 0.023       .   A
C788       H804 0.023       .   A
C788       H805 0.023       .   A
C790       C791 0.033       .   A
C790       H797 0.023       .   A
C790       H799 0.023       .   A
C791       N792 0.031       .   A
C791       N794 0.033       .   A
C791       H798 0.023       .   A
N792       N793 0.031       .   A
N792       H796 0.021       .   A
N793       H795 0.021       .   A
N794       N802 0.028       .   A
C752       C753 0.028       .   A
C752       C757 0.028       .   A
C753       C754 0.028       .   A
C753       H760 0.023       .   A
C754       C755 0.028       .   A
C754       C759 0.023       .   A
C755       C756 0.028       .   A
C755       C758 0.034       .   A
C756       C757 0.028       .   A
C756       H762 0.023       .   A
C757       C761 0.032       .   A
C758       C763 0.033       .   A
C758       N766 0.031       .   A
C758       H773 0.023       .   A
C759       N774 0.024       .   A
C761       H776 0.023       .   A
C761       H777 0.023       .   A
C761       H778 0.023       .   A
C763       C764 0.033       .   A
C763       H770 0.023       .   A
C763       H772 0.023       .   A
C764       N765 0.031       .   A
C764       N767 0.033       .   A
C764       H771 0.023       .   A
N765       N766 0.031       .   A
N765       H769 0.021       .   A
N766       H768 0.021       .   A
N767       N775 0.028       .   A
C725       C726 0.028       .   A
C725       C730 0.028       .   A
C726       C727 0.028       .   A
C726       H733 0.023       .   A
C727       C728 0.028       .   A
C727       C732 0.023       .   A
C728       C729 0.028       .   A
C728       C731 0.034       .   A
C729       C730 0.028       .   A
C729       H735 0.023       .   A
C730       C734 0.032       .   A
C731       C736 0.033       .   A
C731       N739 0.031       .   A
C731       H746 0.023       .   A
C732       N747 0.024       .   A
C734       H749 0.023       .   A
C734       H750 0.023       .   A
C734       H751 0.023       .   A
C736       C737 0.033       .   A
C736       H743 0.023       .   A
C736       H745 0.023       .   A
C737       N738 0.031       .   A
C737       N740 0.033       .   A
C737       H744 0.023       .   A
N738       N739 0.031       .   A
N738       H742 0.021       .   A
N739       H741 0.021       .   A
N740       N748 0.028       .   A
C698       C699 0.028       .   A
C698       C703 0.028       .   A
C699       C700 0.028       .   A
C699       H706 0.023       .   A
C700       C701 0.028       .   A
C700       C705 0.023       .   A
C701       C702 0.028       .   A
C701       C704 0.034       .   A
C702       C703 0.028       .   A
C702       H708 0.023       .   A
C703       C707 0.032       .   A
C704       C709 0.033       .   A
C704       N712 0.031       .   A
C704       H719 0.023       .   A
C705       N720 0.024       .   A
C707       H722 0.023       .   A
C707       H723 0.023       .   A
C707       H724 0.023       .   A
C709       C710 0.033       .   A
C709       H716 0.023       .   A
C709       H718 0.023       .   A
C710       N711 0.031       .   A
C710       N713 0.033       .   A
C710       H717 0.023       .   A
N711       N712 0.031       .   A
N711       H715 0.021       .   A
N712       H714 0.021       .   A
N713       N721 0.028       .   A
C671       C672 0.028       .   A
C671       C676 0.028       .   A
C672       C673 0.028       .   A
C672       H679 0.023       .   A
C673       C674 0.028       .   A
C673       C678 0.023       .   A
C674       C675 0.028       .   A
C674       C677 0.034       .   A
C675       C676 0.028       .   A
C675       H681 0.023       .   A
C676       C680 0.032       .   A
C677       C682 0.033       .   A
C677       N685 0.031       .   A
C677       H692 0.023       .   A
C678       N693 0.024       .   A
C680       H695 0.023       .   A
C680       H696 0.023       .   A
C680       H697 0.023       .   A
C682       C683 0.033       .   A
C682       H689 0.023       .   A
C682       H691 0.023       .   A
C683       N684 0.031       .   A
C683       N686 0.033       .   A
C683       H690 0.023       .   A
N684       N685 0.031       .   A
N684       H688 0.021       .   A
N685       H687 0.021       .   A
N686       N694 0.028       .   A
C644       C645 0.028       .   A
C644       C649 0.028       .   A
C645       C646 0.028       .   A
C645       H652 0.023       .   A
C646       C647 0.028       .   A
C646       C651 0.023       .   A
C647       C648 0.028       .   A
C647       C650 0.034       .   A
C648       C649 0.028       .   A
C648       H654 0.023       .   A
C649       C653 0.032       .   A
C650       C655 0.033       .   A
C650       N658 0.031       .   A
C650       H665 0.023       .   A
C651       N666 0.024       .   A
C653       H668 0.023       .   A
C653       H669 0.023       .   A
C653       H670 0.023       .   A
C655       C656 0.033       .   A
C655       H662 0.023       .   A
C655       H664 0.023       .   A
C656       N657 0.031       .   A
C656       N659 0.033       .   A
C656       H663 0.023       .   A
N657       N658 0.031       .   A
N657       H661 0.021       .   A
N658       H660 0.021       .   A
N659       N667 0.028       .   A
C617       C618 0.028       .   A
C617       C622 0.028       .   A
C618       C619 0.028       .   A
C618       H625 0.023       .   A
C619       C620 0.028       .   A
C619       C624 0.023       .   A
C620       C621 0.028       .   A
C620       C623 0.034       .   A
C621       C622 0.028       .   A
C621       H627 0.023       .   A
C622       C626 0.032       .   A
C623       C628 0.033       .   A
C623       N631 0.031       .   A
C623       H638 0.023       .   A
C624       N639 0.024       .   A
C626       H641 0.023       .   A
C626       H642 0.023       .   A
C626       H643 0.023       .   A
C628       C629 0.033       .   A
C628       H635 0.023       .   A
C628       H637 0.023       .   A
C629       N630 0.031       .   A
C629       N632 0.033       .   A
C629       H636 0.023       .   A
N630       N631 0.031       .   A
N630       H634 0.021       .   A
N631       H633 0.021       .   A
N632       N640 0.028       .   A
C590       C591 0.028       .   A
C590       C595 0.028       .   A
C591       C592 0.028       .   A
C591       H598 0.023       .   A
C592       C593 0.028       .   A
C592       C597 0.023       .   A
C593       C594 0.028       .   A
C593       C596 0.034       .   A
C594       C595 0.028       .   A
C594       H600 0.023       .   A
C595       C599 0.032       .   A
C596       C601 0.033       .   A
C596       N604 0.031       .   A
C596       H611 0.023       .   A
C597       N612 0.024       .   A
C599       H614 0.023       .   A
C599       H615 0.023       .   A
C599       H616 0.023       .   A
C601       C602 0.033       .   A
C601       H608 0.023       .   A
C601       H610 0.023       .   A
C602       N603 0.031       .   A
C602       N605 0.033       .   A
C602       H609 0.023       .   A
N603       N604 0.031       .   A
N603       H607 0.021       .   A
N604       H606 0.021       .   A
N605       N613 0.028       .   A
C563       C564 0.028       .   A
C563       C568 0.028       .   A
C564       C565 0.028       .   A
C564       H571 0.023       .   A
C565       C566 0.028       .   A
C565       C570 0.023       .   A
C566       C567 0.028       .   A
C566       C569 0.034       .   A
C567       C568 0.028       .   A
C567       H573 0.023       .   A
C568       C572 0.032       .   A
C569       C574 0.033       .   A
C569       N577 0.031       .   A
C569       H584 0.023       .   A
C570       N585 0.024       .   A
C572       H587 0.023       .   A
C572       H588 0.023       .   A
C572       H589 0.023       .   A
C574       C575 0.033       .   A
C574       H581 0.023       .   A
C574       H583 0.023       .   A
C575       N576 0.031       .   A
C575       N578 0.033       .   A
C575       H582 0.023       .   A
N576       N577 0.031       .   A
N576       H580 0.021       .   A
N577       H579 0.021       .   A
N578       N586 0.028       .   A
C536       C537 0.028       .   A
C536       C541 0.028       .   A
C537       C538 0.028       .   A
C537       H544 0.023       .   A
C538       C539 0.028       .   A
C538       C543 0.023       .   A
C539       C540 0.028       .   A
C539       C542 0.034       .   A
C540       C541 0.028       .   A
C540       H546 0.023       .   A
C541       C545 0.032       .   A
C542       C547 0.033       .   A
C542       N550 0.031       .   A
C542       H557 0.023       .   A
C543       N558 0.024       .   A
C545       H560 0.023       .   A
C545       H561 0.023       .   A
C545       H562 0.023       .   A
C547       C548 0.033       .   A
C547       H554 0.023       .   A
C547       H556 0.023       .   A
C548       N549 0.031       .   A
C548       N551 0.033       .   A
C548       H555 0.023       .   A
N549       N550 0.031       .   A
N549       H553 0.021       .   A
N550       H552 0.021       .   A
N551       N559 0.028       .   A
C509       C510 0.028       .   A
C509       C514 0.028       .   A
C510       C511 0.028       .   A
C510       H517 0.023       .   A
C511       C512 0.028       .   A
C511       C516 0.023       .   A
C512       C513 0.028       .   A
C512       C515 0.034       .   A
C513       C514 0.028       .   A
C513       H519 0.023       .   A
C514       C518 0.032       .   A
C515       C520 0.033       .   A
C515       N523 0.031       .   A
C515       H530 0.023       .   A
C516       N531 0.024       .   A
C518       H533 0.023       .   A
C518       H534 0.023       .   A
C518       H535 0.023       .   A
C520       C521 0.033       .   A
C520       H527 0.023       .   A
C520       H529 0.023       .   A
C521       N522 0.031       .   A
C521       N524 0.033       .   A
C521       H528 0.023       .   A
N522       N523 0.031       .   A
N522       H526 0.021       .   A
N523       H525 0.021       .   A
N524       N532 0.028       .   A
C482       C483 0.028       .   A
C482       C487 0.028       .   A
C483       C484 0.028       .   A
C483       H490 0.023       .   A
C484       C485 0.028       .   A
C484       C489 0.023       .   A
C485       C486 0.028       .   A
C485       C488 0.034       .   A
C486       C487 0.028       .   A
C486       H492 0.023       .   A
C487       C491 0.032       .   A
C488       C493 0.033       .   A
C488       N496 0.031       .   A
C488       H503 0.023       .   A
C489       N504 0.024       .   A
C491       H506 0.023       .   A
C491       H507 0.023       .   A
C491       H508 0.023       .   A
C493       C494 0.033       .   A
C493       H500 0.023       .   A
C493       H502 0.023       .   A
C494       N495 0.031       .   A
C494       N497 0.033       .   A
C494       H501 0.023       .   A
N495       N496 0.031       .   A
N495       H499 0.021       .   A
N496       H498 0.021       .   A
N497       N505 0.028       .   A
C455       C456 0.028       .   A
C455       C460 0.028       .   A
C456       C457 0.028       .   A
C456       H463 0.023       .   A
C457       C458 0.028       .   A
C457       C462 0.023       .   A
C458       C459 0.028       .   A
C458       C461 0.034       .   A
C459       C460 0.028       .   A
C459       H465 0.023       .   A
C460       C464 0.032       .   A
C461       C466 0.033       .   A
C461       N469 0.031       .   A
C461       H476 0.023       .   A
C462       N477 0.024       .   A
C464       H479 0.023       .   A
C464       H480 0.023       .   A
C464       H481 0.023       .   A
C466       C467 0.033       .   A
C466       H473 0.023       .   A
C466       H475 0.023       .   A
C467       N468 0.031       .   A
C467       N470 0.033       .   A
C467       H474 0.023       .   A
N468       N469 0.031       .   A
N468       H472 0.021       .   A
N469       H471 0.021       .   A
N470       N478 0.028       .   A
C428       C429 0.028       .   A
C428       C433 0.028       .   A
C429       C430 0.028       .   A
C429       H436 0.023       .   A
C430       C431 0.028       .   A
C430       C435 0.023       .   A
C431       C432 0.028       .   A
C431       C434 0.034       .   A
C432       C433 0.028       .   A
C432       H438 0.023       .   A
C433       C437 0.032       .   A
C434       C439 0.033       .   A
C434       N442 0.031       .   A
C434       H449 0.023       .   A
C435       N450 0.024       .   A
C437       H452 0.023       .   A
C437       H453 0.023       .   A
C437       H454 0.023       .   A
C439       C440 0.033       .   A
C439       H446 0.023       .   A
C439       H448 0.023       .   A
C440       N441 0.031       .   A
C440       N443 0.033       .   A
C440       H447 0.023       .   A
N441       N442 0.031       .   A
N441       H445 0.021       .   A
N442       H444 0.021       .   A
N443       N451 0.028       .   A
C401       C402 0.028       .   A
C401       C406 0.028       .   A
C402       C403 0.028       .   A
C402       H409 0.023       .   A
C403       C404 0.028       .   A
C403       C408 0.023       .   A
C404       C405 0.028       .   A
C404       C407 0.034       .   A
C405       C406 0.028       .   A
C405       H411 0.023       .   A
C406       C410 0.032       .   A
C407       C412 0.033       .   A
C407       N415 0.031       .   A
C407       H422 0.023       .   A
C408       N423 0.024       .   A
C410       H425 0.023       .   A
C410       H426 0.023       .   A
C410       H427 0.023       .   A
C412       C413 0.033       .   A
C412       H419 0.023       .   A
C412       H421 0.023       .   A
C413       N414 0.031       .   A
C413       N416 0.033       .   A
C413       H420 0.023       .   A
N414       N415 0.031       .   A
N414       H418 0.021       .   A
N415       H417 0.021       .   A
N416       N424 0.028       .   A
C374       C375 0.028       .   A
C374       C379 0.028       .   A
C375       C376 0.028       .   A
C375       H382 0.023       .   A
C376       C377 0.028       .   A
C376       C381 0.023       .   A
C377       C378 0.028       .   A
C377       C380 0.034       .   A
C378       C379 0.028       .   A
C378       H384 0.023       .   A
C379       C383 0.032       .   A
C380       C385 0.033       .   A
C380       N388 0.031       .   A
C380       H395 0.023       .   A
C381       N396 0.024       .   A
C383       H398 0.023       .   A
C383       H399 0.023       .   A
C383       H400 0.023       .   A
C385       C386 0.033       .   A
C385       H392 0.023       .   A
C385       H394 0.023       .   A
C386       N387 0.031       .   A
C386       N389 0.033       .   A
C386       H393 0.023       .   A
N387       N388 0.031       .   A
N387       H391 0.021       .   A
N388       H390 0.021       .   A
N389       N397 0.028       .   A
C347       C348 0.028       .   A
C347       C352 0.028       .   A
C348       C349 0.028       .   A
C348       H355 0.023       .   A
C349       C350 0.028       .   A
C349       C354 0.023       .   A
C350       C351 0.028       .   A
C350       C353 0.034       .   A
C351       C352 0.028       .   A
C351       H357 0.023       .   A
C352       C356 0.032       .   A
C353       C358 0.033       .   A
C353       N361 0.031       .   A
C353       H368 0.023       .   A
C354       N369 0.024       .   A
C356       H371 0.023       .   A
C356       H372 0.023       .   A
C356       H373 0.023       .   A
C358       C359 0.033       .   A
C358       H365 0.023       .   A
C358       H367 0.023       .   A
C359       N360 0.031       .   A
C359       N362 0.033       .   A
C359       H366 0.023       .   A
N360       N361 0.031       .   A
N360       H364 0.021       .   A
N361       H363 0.021       .   A
N362       N370 0.028       .   A
C320       C321 0.028       .   A
C320       C325 0.028       .   A
C321       C322 0.028       .   A
C321       H328 0.023       .   A
C322       C323 0.028       .   A
C322       C327 0.023       .   A
C323       C324 0.028       .   A
C323       C326 0.034       .   A
C324       C325 0.028       .   A
C324       H330 0.023       .   A
C325       C329 0.032       .   A
C326       C331 0.033       .   A
C326       N334 0.031       .   A
C326       H341 0.023       .   A
C327       N342 0.024       .   A
C329       H344 0.023       .   A
C329       H345 0.023       .   A
C329       H346 0.023       .   A
C331       C332 0.033       .   A
C331       H338 0.023       .   A
C331       H340 0.023       .   A
C332       N333 0.031       .   A
C332       N335 0.033       .   A
C332       H339 0.023       .   A
N333       N334 0.031       .   A
N333       H337 0.021       .   A
N334       H336 0.021       .   A
N335       N343 0.028       .   A
C293       C294 0.028       .   A
C293       C298 0.028       .   A
C294       C295 0.028       .   A
C294       H301 0.023       .   A
C295       C296 0.028       .   A
C295       C300 0.023       .   A
C296       C297 0.028       .   A
C296       C299 0.034       .   A
C297       C298 0.028       .   A
C297       H303 0.023       .   A
C298       C302 0.032       .   A
C299       C304 0.033       .   A
C299       N307 0.031       .   A
C299       H314 0.023       .   A
C300       N315 0.024       .   A
C302       H317 0.023       .   A
C302       H318 0.023       .   A
C302       H319 0.023       .   A
C304       C305 0.033       .   A
C304       H311 0.023       .   A
C304       H313 0.023       .   A
C305       N306 0.031       .   A
C305       N308 0.033       .   A
C305       H312 0.023       .   A
N306       N307 0.031       .   A
N306       H310 0.021       .   A
N307       H309 0.021       .   A
N308       N316 0.028       .   A
C266       C267 0.028       .   A
C266       C271 0.028       .   A
C267       C268 0.028       .   A
C267       H274 0.023       .   A
C268       C269 0.028       .   A
C268       C273 0.023       .   A
C269       C270 0.028       .   A
C269       C272 0.034       .   A
C270       C271 0.028       .   A
C270       H276 0.023       .   A
C271       C275 0.032       .   A
C272       C277 0.033       .   A
C272       N280 0.031       .   A
C272       H287 0.023       .   A
C273       N288 0.024       .   A
C275       H290 0.023       .   A
C275       H291 0.023       .   A
C275       H292 0.023       .   A
C277       C278 0.033       .   A
C277       H284 0.023       .   A
C277       H286 0.023       .   A
C278       N279 0.031       .   A
C278       N281 0.033       .   A
C278       H285 0.023       .   A
N279       N280 0.031       .   A
N279       H283 0.021       .   A
N280       H282 0.021       .   A
N281       N289 0.028       .   A
C239       C240 0.028       .   A
C239       C244 0.028       .   A
C240       C241 0.028       .   A
C240       H247 0.023       .   A
C241       C242 0.028       .   A
C241       C246 0.023       .   A
C242       C243 0.028       .   A
C242       C245 0.034       .   A
C243       C244 0.028       .   A
C243       H249 0.023       .   A
C244       C248 0.032       .   A
C245       C250 0.033       .   A
C245       N253 0.031       .   A
C245       H260 0.023       .   A
C246       N261 0.024       .   A
C248       H263 0.023       .   A
C248       H264 0.023       .   A
C248       H265 0.023       .   A
C250       C251 0.033       .   A
C250       H257 0.023       .   A
C250       H259 0.023       .   A
C251       N252 0.031       .   A
C251       N254 0.033       .   A
C251       H258 0.023       .   A
N252       N253 0.031       .   A
N252       H256 0.021       .   A
N253       H255 0.021       .   A
N254       N262 0.028       .   A
C212       C213 0.028       .   A
C212       C217 0.028       .   A
C213       C214 0.028       .   A
C213       H220 0.023       .   A
C214       C215 0.028       .   A
C214       C219 0.023       .   A
C215       C216 0.028       .   A
C215       C218 0.034       .   A
C216       C217 0.028       .   A
C216       H222 0.023       .   A
C217       C221 0.032       .   A
C218       C223 0.033       .   A
C218       N226 0.031       .   A
C218       H233 0.023       .   A
C219       N234 0.024       .   A
C221       H236 0.023       .   A
C221       H237 0.023       .   A
C221       H238 0.023       .   A
C223       C224 0.033       .   A
C223       H230 0.023       .   A
C223       H232 0.023       .   A
C224       N225 0.031       .   A
C224       N227 0.033       .   A
C224       H231 0.023       .   A
N225       N226 0.031       .   A
N225       H229 0.021       .   A
N226       H228 0.021       .   A
N227       N235 0.028       .   A
C185       C186 0.028       .   A
C185       C190 0.028       .   A
C186       C187 0.028       .   A
C186       H193 0.023       .   A
C187       C188 0.028       .   A
C187       C192 0.023       .   A
C188       C189 0.028       .   A
C188       C191 0.034       .   A
C189       C190 0.028       .   A
C189       H195 0.023       .   A
C190       C194 0.032       .   A
C191       C196 0.033       .   A
C191       N199 0.031       .   A
C191       H206 0.023       .   A
C192       N207 0.024       .   A
C194       H209 0.023       .   A
C194       H210 0.023       .   A
C194       H211 0.023       .   A
C196       C197 0.033       .   A
C196       H203 0.023       .   A
C196       H205 0.023       .   A
C197       N198 0.031       .   A
C197       N200 0.033       .   A
C197       H204 0.023       .   A
N198       N199 0.031       .   A
N198       H202 0.021       .   A
N199       H201 0.021       .   A
N200       N208 0.028       .   A
