data_pcu_v1-6c_Zn_1_Ch_1-13_fer_tobacco
_audit_creation_date              2021-04-07
_audit_creation_method            'tobacco_3.0'
_symmetry_space_group_name_H-M    'P1'
_symmetry_Int_Tables_number       1
_symmetry_cell_setting            triclinic
loop_
_symmetry_equiv_pos_as_xyz
  x,y,z
_cell_length_a                    44.534734764092704
_cell_length_b                    44.534734764092704
_cell_length_c                    44.534734764092704
_cell_angle_alpha                 90.0
_cell_angle_beta                  90.0
_cell_angle_gamma                 90.0
loop_
_atom_site_label
_atom_site_type_symbol
_atom_site_fract_x
_atom_site_fract_y
_atom_site_fract_z
_atom_site_charge
Zn1       Zn   -0.0251758544   -0.0251758544    0.0251758544          1.4972
Zn2       Zn    0.0251758544    0.0251758544    0.0251758544          1.4936
Zn3       Zn    0.0251758544   -0.0251758544   -0.0251758544          1.4911
Zn4       Zn   -0.0251758544    0.0251758544   -0.0251758544          1.4948
O5         O    0.0000000000    0.0000000000    0.0000000000         -2.2699
O6         O   -0.0185024118   -0.0185024118    0.0672868047         -1.1762
O7         O    0.0672868047    0.0185024118    0.0185024118         -1.1744
O8         O    0.0185024118   -0.0672868047   -0.0185024118         -1.1696
O9         O    0.0185024118    0.0185024118    0.0672868047         -1.1764
O10        O   -0.0185024118   -0.0672868047    0.0185024118         -1.1724
O11        O    0.0672868047   -0.0185024118   -0.0185024118         -1.1782
O12        O   -0.0185024118    0.0185024118   -0.0672868047         -1.1721
O13        O    0.0185024118    0.0672868047    0.0185024118         -1.1797
O14        O    0.0185024118   -0.0185024118   -0.0672868047         -1.1736
O15        O   -0.0185024118    0.0672868047   -0.0185024118         -1.1782
O16        O   -0.0672868047    0.0185024118   -0.0185024118         -1.1773
O17        O   -0.0672868047   -0.0185024118    0.0185024118         -1.1752
C18        C   -0.0000000000   -0.0000000000    0.0804495641          0.3427
C19        C    0.0804495641   -0.0000000000   -0.0000000000          0.3476
C20        C   -0.0000000000   -0.0804495641    0.0000000000          0.3372
C21        C    0.0000000000    0.0000000000   -0.0804495641          0.3409
C22        C    0.0000000000    0.0804495641   -0.0000000000          0.3523
C23        C   -0.0804495641    0.0000000000    0.0000000000          0.3428
Zn24      Zn    0.9748241456    0.0251758544    0.4748241456          1.4972
Zn25      Zn    1.0251758544   -0.0251758544    0.4748241456          1.4936
Zn26      Zn    1.0251758544    0.0251758544    0.5251758544          1.4911
Zn27      Zn    0.9748241456   -0.0251758544    0.5251758544          1.4948
O28        O    1.0000000000    0.0000000000    0.5000000000         -2.2699
O29        O    0.9814975882    0.0185024118    0.4327131953         -1.1762
O30        O    1.0672868047   -0.0185024118    0.4814975882         -1.1744
O31        O    1.0185024118    0.0672868047    0.5185024118         -1.1696
O32        O    1.0185024118   -0.0185024118    0.4327131953         -1.1764
O33        O    0.9814975882    0.0672868047    0.4814975882         -1.1724
O34        O    1.0672868047    0.0185024118    0.5185024118         -1.1782
O35        O    0.9814975882   -0.0185024118    0.5672868047         -1.1721
O36        O    1.0185024118   -0.0672868047    0.4814975882         -1.1797
O37        O    1.0185024118    0.0185024118    0.5672868047         -1.1736
O38        O    0.9814975882   -0.0672868047    0.5185024118         -1.1782
O39        O    0.9327131953   -0.0185024118    0.5185024118         -1.1773
O40        O    0.9327131953    0.0185024118    0.4814975882         -1.1752
C41        C    1.0000000000    0.0000000000    0.4195504359          0.3427
C42        C    1.0804495641    0.0000000000    0.5000000000          0.3476
C43        C    1.0000000000    0.0804495641    0.5000000000          0.3372
C44        C    1.0000000000    0.0000000000    0.5804495641          0.3409
C45        C    1.0000000000   -0.0804495641    0.5000000000          0.3523
C46        C    0.9195504359    0.0000000000    0.5000000000          0.3428
Zn47      Zn    1.0251758544    0.4748241456   -0.0251758544          1.4972
Zn48      Zn    0.9748241456    0.4748241456    0.0251758544          1.4936
Zn49      Zn    1.0251758544    0.5251758544    0.0251758544          1.4911
Zn50      Zn    0.9748241456    0.5251758544   -0.0251758544          1.4948
O51        O    1.0000000000    0.5000000000    0.0000000000         -2.2699
O52        O    1.0185024118    0.4327131953   -0.0185024118         -1.1762
O53        O    0.9814975882    0.4814975882    0.0672868047         -1.1744
O54        O    1.0672868047    0.5185024118    0.0185024118         -1.1696
O55        O    0.9814975882    0.4327131953    0.0185024118         -1.1764
O56        O    1.0672868047    0.4814975882   -0.0185024118         -1.1724
O57        O    1.0185024118    0.5185024118    0.0672868047         -1.1782
O58        O    0.9814975882    0.5672868047   -0.0185024118         -1.1721
O59        O    0.9327131953    0.4814975882    0.0185024118         -1.1797
O60        O    1.0185024118    0.5672868047    0.0185024118         -1.1736
O61        O    0.9327131953    0.5185024118   -0.0185024118         -1.1782
O62        O    0.9814975882    0.5185024118   -0.0672868047         -1.1773
O63        O    1.0185024118    0.4814975882   -0.0672868047         -1.1752
C64        C    1.0000000000    0.4195504359    0.0000000000          0.3427
C65        C    1.0000000000    0.5000000000    0.0804495641          0.3476
C66        C    1.0804495641    0.5000000000    0.0000000000          0.3372
C67        C    1.0000000000    0.5804495641    0.0000000000          0.3409
C68        C    0.9195504359    0.5000000000    0.0000000000          0.3523
C69        C    1.0000000000    0.5000000000   -0.0804495641          0.3428
Zn70      Zn    0.9748241456    0.4748241456    0.5251758544          1.4972
Zn71      Zn    1.0251758544    0.4748241456    0.4748241456          1.4936
Zn72      Zn    0.9748241456    0.5251758544    0.4748241456          1.4911
Zn73      Zn    1.0251758544    0.5251758544    0.5251758544          1.4948
O74        O    1.0000000000    0.5000000000    0.5000000000         -2.2699
O75        O    0.9814975882    0.4327131953    0.5185024118         -1.1762
O76        O    1.0185024118    0.4814975882    0.4327131953         -1.1744
O77        O    0.9327131953    0.5185024118    0.4814975882         -1.1696
O78        O    1.0185024118    0.4327131953    0.4814975882         -1.1764
O79        O    0.9327131953    0.4814975882    0.5185024118         -1.1724
O80        O    0.9814975882    0.5185024118    0.4327131953         -1.1782
O81        O    1.0185024118    0.5672868047    0.5185024118         -1.1721
O82        O    1.0672868047    0.4814975882    0.4814975882         -1.1797
O83        O    0.9814975882    0.5672868047    0.4814975882         -1.1736
O84        O    1.0672868047    0.5185024118    0.5185024118         -1.1782
O85        O    1.0185024118    0.5185024118    0.5672868047         -1.1773
O86        O    0.9814975882    0.4814975882    0.5672868047         -1.1752
C87        C    1.0000000000    0.4195504359    0.5000000000          0.3427
C88        C    1.0000000000    0.5000000000    0.4195504359          0.3476
C89        C    0.9195504359    0.5000000000    0.5000000000          0.3372
C90        C    1.0000000000    0.5804495641    0.5000000000          0.3409
C91        C    1.0804495641    0.5000000000    0.5000000000          0.3523
C92        C    1.0000000000    0.5000000000    0.5804495641          0.3428
Zn93      Zn    0.4748241456    0.9748241456   -0.0251758544          1.4972
Zn94      Zn    0.4748241456    1.0251758544    0.0251758544          1.4936
Zn95      Zn    0.5251758544    0.9748241456    0.0251758544          1.4911
Zn96      Zn    0.5251758544    1.0251758544   -0.0251758544          1.4948
O97        O    0.5000000000    1.0000000000    0.0000000000         -2.2699
O98        O    0.4327131953    0.9814975882   -0.0185024118         -1.1762
O99        O    0.4814975882    1.0185024118    0.0672868047         -1.1744
O100       O    0.5185024118    0.9327131953    0.0185024118         -1.1696
O101       O    0.4327131953    1.0185024118    0.0185024118         -1.1764
O102       O    0.4814975882    0.9327131953   -0.0185024118         -1.1724
O103       O    0.5185024118    0.9814975882    0.0672868047         -1.1782
O104       O    0.5672868047    1.0185024118   -0.0185024118         -1.1721
O105       O    0.4814975882    1.0672868047    0.0185024118         -1.1797
O106       O    0.5672868047    0.9814975882    0.0185024118         -1.1736
O107       O    0.5185024118    1.0672868047   -0.0185024118         -1.1782
O108       O    0.5185024118    1.0185024118   -0.0672868047         -1.1773
O109       O    0.4814975882    0.9814975882   -0.0672868047         -1.1752
C110       C    0.4195504359    1.0000000000    0.0000000000          0.3427
C111       C    0.5000000000    1.0000000000    0.0804495641          0.3476
C112       C    0.5000000000    0.9195504359    0.0000000000          0.3372
C113       C    0.5804495641    1.0000000000    0.0000000000          0.3409
C114       C    0.5000000000    1.0804495641    0.0000000000          0.3523
C115       C    0.5000000000    1.0000000000   -0.0804495641          0.3428
Zn116     Zn    0.4748241456    0.9748241456    0.5251758544          1.4972
Zn117     Zn    0.4748241456    1.0251758544    0.4748241456          1.4936
Zn118     Zn    0.5251758544    1.0251758544    0.5251758544          1.4911
Zn119     Zn    0.5251758544    0.9748241456    0.4748241456          1.4948
O120       O    0.5000000000    1.0000000000    0.5000000000         -2.2699
O121       O    0.4327131953    0.9814975882    0.5185024118         -1.1762
O122       O    0.4814975882    1.0672868047    0.4814975882         -1.1744
O123       O    0.5185024118    1.0185024118    0.5672868047         -1.1696
O124       O    0.4327131953    1.0185024118    0.4814975882         -1.1764
O125       O    0.4814975882    0.9814975882    0.5672868047         -1.1724
O126       O    0.5185024118    1.0672868047    0.5185024118         -1.1782
O127       O    0.5672868047    0.9814975882    0.4814975882         -1.1721
O128       O    0.4814975882    1.0185024118    0.4327131953         -1.1797
O129       O    0.5672868047    1.0185024118    0.5185024118         -1.1736
O130       O    0.5185024118    0.9814975882    0.4327131953         -1.1782
O131       O    0.5185024118    0.9327131953    0.4814975882         -1.1773
O132       O    0.4814975882    0.9327131953    0.5185024118         -1.1752
C133       C    0.4195504359    1.0000000000    0.5000000000          0.3427
C134       C    0.5000000000    1.0804495641    0.5000000000          0.3476
C135       C    0.5000000000    1.0000000000    0.5804495641          0.3372
C136       C    0.5804495641    1.0000000000    0.5000000000          0.3409
C137       C    0.5000000000    1.0000000000    0.4195504359          0.3523
C138       C    0.5000000000    0.9195504359    0.5000000000          0.3428
Zn139     Zn    0.4748241456    0.4748241456    0.0251758544          1.4972
Zn140     Zn    0.4748241456    0.5251758544   -0.0251758544          1.4936
Zn141     Zn    0.5251758544    0.5251758544    0.0251758544          1.4911
Zn142     Zn    0.5251758544    0.4748241456   -0.0251758544          1.4948
O143       O    0.5000000000    0.5000000000    0.0000000000         -2.2699
O144       O    0.4327131953    0.4814975882    0.0185024118         -1.1762
O145       O    0.4814975882    0.5672868047   -0.0185024118         -1.1744
O146       O    0.5185024118    0.5185024118    0.0672868047         -1.1696
O147       O    0.4327131953    0.5185024118   -0.0185024118         -1.1764
O148       O    0.4814975882    0.4814975882    0.0672868047         -1.1724
O149       O    0.5185024118    0.5672868047    0.0185024118         -1.1782
O150       O    0.5672868047    0.4814975882   -0.0185024118         -1.1721
O151       O    0.4814975882    0.5185024118   -0.0672868047         -1.1797
O152       O    0.5672868047    0.5185024118    0.0185024118         -1.1736
O153       O    0.5185024118    0.4814975882   -0.0672868047         -1.1782
O154       O    0.5185024118    0.4327131953   -0.0185024118         -1.1773
O155       O    0.4814975882    0.4327131953    0.0185024118         -1.1752
C156       C    0.4195504359    0.5000000000    0.0000000000          0.3427
C157       C    0.5000000000    0.5804495641    0.0000000000          0.3476
C158       C    0.5000000000    0.5000000000    0.0804495641          0.3372
C159       C    0.5804495641    0.5000000000    0.0000000000          0.3409
C160       C    0.5000000000    0.5000000000   -0.0804495641          0.3523
C161       C    0.5000000000    0.4195504359    0.0000000000          0.3428
Zn162     Zn    0.4748241456    0.4748241456    0.4748241456          1.4972
Zn163     Zn    0.5251758544    0.5251758544    0.4748241456          1.4936
Zn164     Zn    0.4748241456    0.5251758544    0.5251758544          1.4911
Zn165     Zn    0.5251758544    0.4748241456    0.5251758544          1.4948
O166       O    0.5000000000    0.5000000000    0.5000000000         -2.2699
O167       O    0.4814975882    0.4814975882    0.4327131953         -1.1762
O168       O    0.5185024118    0.5672868047    0.4814975882         -1.1744
O169       O    0.4327131953    0.5185024118    0.5185024118         -1.1696
O170       O    0.5185024118    0.5185024118    0.4327131953         -1.1764
O171       O    0.4327131953    0.4814975882    0.4814975882         -1.1724
O172       O    0.4814975882    0.5672868047    0.5185024118         -1.1782
O173       O    0.5185024118    0.4814975882    0.5672868047         -1.1721
O174       O    0.5672868047    0.5185024118    0.4814975882         -1.1797
O175       O    0.4814975882    0.5185024118    0.5672868047         -1.1736
O176       O    0.5672868047    0.4814975882    0.5185024118         -1.1782
O177       O    0.5185024118    0.4327131953    0.5185024118         -1.1773
O178       O    0.4814975882    0.4327131953    0.4814975882         -1.1752
C179       C    0.5000000000    0.5000000000    0.4195504359          0.3427
C180       C    0.5000000000    0.5804495641    0.5000000000          0.3476
C181       C    0.4195504359    0.5000000000    0.5000000000          0.3372
C182       C    0.5000000000    0.5000000000    0.5804495641          0.3409
C183       C    0.5804495641    0.5000000000    0.5000000000          0.3523
C184       C    0.5000000000    0.4195504359    0.5000000000          0.3428
C783       C    0.5000000000    0.5000000000   -0.1150293142          0.5579
C784       C    0.5091412577    0.5263697750   -0.1278024736          0.5468
C785       C    0.5066951129    0.5327154798   -0.1577523739          0.5444
C786       C    0.4956810011    0.5129444292   -0.1780123644          0.5536
C787       C    0.4873051500    0.4872218921   -0.1644733419          0.5647
C788       C    0.4876273611    0.4813840554   -0.1347592059          0.5657
C789       C    0.4975748737    0.5158423180   -0.2087105497          0.5557
H790       H    0.5162367089    0.5537352533   -0.1658259942          0.5365
H791       H    0.5205991262    0.5431009970   -0.1140763290          0.5404
H792       H    0.4829495413    0.4586327876   -0.1268354287         -0.4228
O793       O    0.4995462095    0.4643427224   -0.1762714742         -0.4134
H794       H    0.5157714839    0.4735607855   -0.1633445230         -0.4125
C795       C    0.4948118135    0.5142380114   -0.2370699301          0.5581
N796       N    0.4840204298    0.5140663900   -0.2666230237          0.5558
N797       N    0.4971459554    0.5093892187   -0.2930284940          0.5679
C798       C    0.5065154539    0.5048697311   -0.3273695278         -0.4212
C799       C    0.4825296980    0.4984388233   -0.3533697570         -0.4265
C800       C    0.5000000000    0.5000000000   -0.3849706858         -0.4157
N801       N    0.5203555138    0.5252664444   -0.3774044991         -0.4226
N802       N    0.5259744936    0.5261986986   -0.3443796045         -0.4236
H803       H    0.5482211513    0.5217158498   -0.3414185360           -0.41
H804       H    0.5100193742    0.5452229470   -0.3816507902          0.5599
H805       H    0.4719212562    0.4765492955   -0.3502754121          -0.418
H806       H    0.5137159586    0.4797238708   -0.3868161066         -0.3957
H807       H    0.4650286298    0.5156275324   -0.3527354460          0.5537
H808       H    0.5201924912    0.4842908799   -0.3264769748         -0.4013
C757       C    0.5000000000    0.5000000000    0.1150293142          0.5579
C758       C    0.4853434421    0.4762489382    0.1278024736          0.5468
C759       C    0.4788799280    0.4741336180    0.1577523739          0.5444
C760       C    0.4872392579    0.4951651826    0.1780123644          0.5536
C761       C    0.5018780444    0.5179140227    0.1644733419          0.5647
C762       C    0.5066055442    0.5213542120    0.1347592059          0.5657
C763       C    0.4861906784    0.4918659411    0.2087105497          0.5557
H764       H    0.4686222190    0.4534538614    0.1658259942          0.5365
H765       H    0.4796202107    0.4567948600    0.1140763290          0.5404
H766       H    0.5212792281    0.5393593554    0.1268354287         -0.4228
O767       O    0.5273446274    0.5228892709    0.1762714742         -0.4134
H768       H    0.5304567724    0.5044896304    0.1633445230         -0.4125
C769       C    0.4856874576    0.4950211068    0.2370699301          0.5581
N770       N    0.4789996233    0.5034920152    0.2666230237          0.5558
N771       N    0.4909201954    0.4962770783    0.2930284940          0.5679
C772       C    0.5003445324    0.4918730868    0.3273695278         -0.4212
C773       C    0.4901674641    0.5145248051    0.3533697570         -0.4265
C774       C    0.5000000000    0.5000000000    0.3849706858         -0.4157
N775       N    0.4932865408    0.4682561877    0.3774044991         -0.4226
N776       N    0.4961156659    0.4633126987    0.3443796045         -0.4236
H777       H    0.5136507777    0.4489068123    0.3414185360           -0.41
H778       H    0.4712888120    0.4636520911    0.3816507902          0.5599
H779       H    0.5004248479    0.5365810183    0.3502754121          -0.418
H780       H    0.5243816693    0.5021870393    0.3868161066         -0.3957
H781       H    0.4657858660    0.5172223556    0.3527354460          0.5537
H782       H    0.5249361856    0.4942816261    0.3264769748         -0.4013
C731       C    0.5000000000    0.6150293142    0.5000000000          0.5579
C732       C    0.5252798788    0.6278024736    0.4881739545          0.5468
C733       C    0.5318450035    0.6577523739    0.4899489847          0.5444
C734       C    0.5133224657    0.6780123644    0.5029536260          0.5536
C735       C    0.4886069781    0.6644733419    0.5139512835          0.5647
C736       C    0.4827671968    0.6347592059    0.5142360837          0.5657
C737       C    0.5160083773    0.7087105497    0.5007695032          0.5557
H738       H    0.5517622067    0.6658259942    0.4782794540          0.5365
H739       H    0.5407329616    0.6140763290    0.4750431217          0.5404
H740       H    0.4606235481    0.6268354287    0.5212475750         -0.4228
O741       O    0.4645819446    0.6762714742    0.5041483397         -0.4134
H742       H    0.4720680691    0.6633445230    0.4870547690         -0.4125
C743       C    0.5146991948    0.7370699301    0.5036840088          0.5581
N744       N    0.5156473635    0.7666230237    0.5144350270          0.5558
N745       N    0.5096345273    0.7930284940    0.5018651760          0.5679
C746       C    0.5041679550    0.8273695278    0.4930147604         -0.4212
C747       C    0.5002585818    0.8533697570    0.5175380118         -0.4265
C748       C    0.5000000000    0.8849706858    0.5000000000         -0.4157
N749       N    0.5230197853    0.8774044991    0.4771345317         -0.4226
N750       N    0.5233644317    0.8443796045    0.4714491777         -0.4236
H751       H    0.5165991793    0.8414185360    0.4497872047           -0.41
H752       H    0.5439403986    0.8816507902    0.4853458481          0.5599
H753       H    0.4795869238    0.8502754121    0.5303588161          -0.418
H754       H    0.4784110585    0.8868161066    0.4884602192         -0.3957
H755       H    0.5191691879    0.8527354460    0.5331626105          0.5537
H756       H    0.4822819584    0.8264769748    0.4815450778         -0.4013
C705       C    0.5000000000    1.1150293142    0.5000000000          0.5579
C706       C    0.4778372852    1.1278024736    0.4830370493          0.5468
C707       C    0.4763803442    1.1577523739    0.4763940893          0.5444
C708       C    0.4964683184    1.1780123644    0.4868189825          0.5536
C709       C    0.5176356377    1.1644733419    0.5036638152          0.5647
C710       C    0.5205847503    1.1347592059    0.5087122696          0.5657
C711       C    0.4932907671    1.2087105497    0.4854450534          0.5557
H712       H    0.4568326499    1.1658259942    0.4641156295          0.5365
H713       H    0.4590546838    1.1140763290    0.4753930697          0.5404
H714       H    0.5370287556    1.1268354287    0.5251164421         -0.4228
O715       O    0.5200337478    1.1762714742    0.5295007850         -0.4134
H716       H    0.5014148531    1.1633445230    0.5307533731         -0.4125
C717       C    0.4964804791    1.2370699301    0.4852605557          0.5581
N718       N    0.5055789551    1.2666230237    0.4794552866          0.5558
N719       N    0.4972057375    1.2930284940    0.4905928168          0.5679
C720       C    0.4918794712    1.3273695278    0.4995283726         -0.4212
C721       C    0.5154370385    1.3533697570    0.4916725413         -0.4265
C722       C    0.5000000000    1.3849706858    0.5000000000         -0.4157
N723       N    0.4690887655    1.3774044991    0.4901391816         -0.4226
N724       N    0.4638866461    1.3443796045    0.4924586610         -0.4236
H725       H    0.4477960264    1.3414185360    0.5084618378           -0.41
H726       H    0.4667123131    1.3816507902    0.4677907979          0.5599
H727       H    0.5363542928    1.3502754121    0.5040886170          -0.418
H728       H    0.4997326600    1.3868161066    0.5244781018         -0.3957
H729       H    0.5205643719    1.3527354460    0.4676840116          0.5537
H730       H    0.4918114729    1.3264769748    0.5242375984         -0.4013
C679       C    0.5000000000    0.8849706858    0.0000000000          0.5579
C680       C    0.5258858959    0.8721975264   -0.0104330254          0.5468
C681       C    0.5290628408    0.8422476261   -0.0164462288          0.5444
C682       C    0.5069212866    0.8219876356   -0.0117604332          0.5536
C683       C    0.4820262070    0.8355266581   -0.0011755947          0.5647
C684       C    0.4778367453    0.8652407941    0.0029027098          0.5657
C685       C    0.5103502595    0.7912894503   -0.0122365194          0.5557
H686       H    0.5511783829    0.8341740058   -0.0230625515          0.5365
H687       H    0.5460272632    0.8859236710   -0.0127871412          0.5404
H688       H    0.4576112709    0.8731645713    0.0143234091         -0.4228
O689       O    0.4728198096    0.8237285258    0.0230842938         -0.4134
H690       H    0.4904291283    0.8366554770    0.0292603859         -0.4125
C691       C    0.5073254735    0.7629300699   -0.0132655827          0.5581
N692       N    0.5001062773    0.7333769763   -0.0212884639          0.5558
N693       N    0.5052034675    0.7069715060   -0.0083202719          0.5679
C694       C    0.5079518706    0.6726304722    0.0017126515         -0.4212
C695       C    0.4873452470    0.6466302430   -0.0121452027         -0.4265
C696       C    0.5000000000    0.6150293142    0.0000000000         -0.4157
N697       N    0.5324217267    0.6225955009   -0.0012537120         -0.4226
N698       N    0.5368161568    0.6556203955    0.0023699623         -0.4236
H699       H    0.5480523222    0.6585814640    0.0220869169           -0.41
H700       H    0.5406762323    0.6183492098   -0.0221573222          0.5599
H701       H    0.4638730912    0.6497245879   -0.0057617579          -0.418
H702       H    0.4937250285    0.6131838934    0.0236616498         -0.3957
H703       H    0.4888058376    0.6472645540   -0.0366320519          0.5537
H704       H    0.5014231058    0.6735230252    0.0255438431         -0.4013
C653       C    0.5000000000    1.3849706858    0.0000000000          0.5579
C654       C    0.5185342086    1.3721975264   -0.0208664979          0.5468
C655       C    0.5187018509    1.3422476261   -0.0276652839          0.5444
C656       C    0.5009617606    1.3219876356   -0.0136120173          0.5536
C657       C    0.4833823463    1.3355266581    0.0069493053          0.5647
C658       C    0.4814466451    1.3652407941    0.0124662989          0.5657
C659       C    0.5038202119    1.2912894503   -0.0155649047          0.5557
H660       H    0.5355591745    1.3341740058   -0.0434356221          0.5365
H661       H    0.5355213396    1.3859236710   -0.0319414209          0.5404
H662       H    0.4684206632    1.3731645713    0.0316971590         -0.4228
O663       O    0.4859392108    1.3237285258    0.0327710478         -0.4134
H664       H    0.5044567346    1.3366554770    0.0304616035         -0.4125
C665       C    0.5006535863    1.2629300699   -0.0151397184          0.5581
N666       N    0.4906174976    1.2333769763   -0.0191096478          0.5558
N667       N    0.5009551403    1.2069715060   -0.0097668165          0.5679
C668       C    0.5078828207    1.1726304722   -0.0020066288         -0.4212
C669       C    0.4832614840    1.1466302430   -0.0052412598         -0.4265
C670       C    0.5000000000    1.1150293142    0.0000000000         -0.4157
N671       N    0.5284732372    1.1225955009   -0.0155568286         -0.4226
N672       N    0.5340214096    1.1556203955   -0.0142684903         -0.4236
H673       H    0.5528606383    1.1585814640   -0.0016156973           -0.41
H674       H    0.5265582419    1.1183492098   -0.0379494741          0.5599
H675       H    0.4650857297    1.1497245879    0.0109245196          -0.418
H676       H    0.5049154146    1.1131838934    0.0239809849         -0.3957
H677       H    0.4736677471    1.1472645540   -0.0278177813          0.5537
H678       H    0.5126464615    1.1735230252    0.0222391583         -0.4013
C627       C    0.5000000000    1.0000000000   -0.1150293142          0.5579
C628       C    0.5155948817    0.9768542166   -0.1278024736          0.5468
C629       C    0.5221378366    0.9749991331   -0.1577523739          0.5444
C630       C    0.5129439242    0.9956794880   -0.1780123644          0.5536
C631       C    0.4974068891    1.0178245627   -0.1644733419          0.5647
C632       C    0.4925455636    1.0210728964   -0.1347592059          0.5657
C633       C    0.5141236358    0.9924248307   -0.2087105497          0.5557
H634       H    0.5332145363    0.9547462406   -0.1658259942          0.5365
H635       H    0.5220917052    0.9576446402   -0.1140763290          0.5404
H636       H    0.4771634092    1.0384766751   -0.1268354287         -0.4228
O637       O    0.4717616757    1.0217771534   -0.1762714742         -0.4134
H638       H    0.4693880159    1.0032677515   -0.1633445230         -0.4125
C639       C    0.5145002456    0.9955976002   -0.2370699301          0.5581
N640       N    0.5208438869    1.0043292456   -0.2666230237          0.5558
N641       N    0.5092214564    0.9966432544   -0.2930284940          0.5679
C642       C    0.4999808238    0.9918658097   -0.3273695278         -0.4212
C643       C    0.5092436673    1.0149064865   -0.3533697570         -0.4265
C644       C    0.5000000000    1.0000000000   -0.3849706858         -0.4157
N645       N    0.5079778540    0.9685501351   -0.3774044991         -0.4226
N646       N    0.5053487352    0.9634974363   -0.3443796045         -0.4236
H647       H    0.4884038998    0.9484016665   -0.3414185360           -0.41
H648       H    0.5301421433    0.9648296433   -0.3816507902          0.5599
H649       H    0.4981122336    1.0365347469   -0.3502754121          -0.418
H650       H    0.4755503617    1.0012100103   -0.3868161066         -0.3957
H651       H    0.5334978485    1.0185771538   -0.3527354460          0.5537
H652       H    0.4753125095    0.9932887432   -0.3264769748         -0.4013
C601       C    0.5000000000    1.0000000000    0.1150293142          0.5579
C602       C    0.4764037966    1.0149045902    0.1278024736          0.5468
C603       C    0.4743563099    1.0213899116    0.1577523739          0.5444
C604       C    0.4952991406    1.0128106955    0.1780123644          0.5536
C605       C    0.5178933635    0.9979343758    0.1644733419          0.5647
C606       C    0.5212838346    0.9931710930    0.1347592059          0.5657
C607       C    0.4920110660    1.0138937832    0.2087105497          0.5557
H608       H    0.4537851569    1.0318637167    0.1658259942          0.5365
H609       H    0.4570107476    1.0208313254    0.1140763290          0.5404
H610       H    0.5391342555    0.9783095770    0.1268354287         -0.4228
O611       O    0.5226015286    0.9724170655    0.1762714742         -0.4134
H612       H    0.5041702924    0.9694978619    0.1633445230         -0.4125
C613       C    0.4951713307    1.0143639201    0.2370699301          0.5581
N614       N    0.5037118417    1.0209626387    0.2666230237          0.5558
N615       N    0.4963724105    1.0091183109    0.2930284940          0.5679
C616       C    0.4918699232    0.9997406311    0.3273695278         -0.4212
C617       C    0.5146270221    1.0096798218    0.3533697570         -0.4265
C618       C    0.5000000000    1.0000000000    0.3849706858         -0.4157
N619       N    0.4683282659    1.0070456665    0.3774044991         -0.4226
N620       N    0.4633554079    1.0042684890    0.3443796045         -0.4236
H621       H    0.4487665991    0.9868852681    0.3414185360           -0.41
H622       H    0.4639548894    1.0290904245    0.3816507902          0.5599
H623       H    0.5365745595    0.9991919209    0.3502754121          -0.418
H624       H    0.5019314757    0.9755967556    0.3868161066         -0.3957
H625       H    0.5175798673    1.0340318199    0.3527354460          0.5537
H626       H    0.4940206868    0.9751250936    0.3264769748         -0.4013
C575       C    0.8849706858    0.5000000000    0.5000000000          0.5579
C576       C    0.8721975264    0.5272930192    0.4941674423          0.5468
C577       C    0.8422476261    0.5332901562    0.4973746126          0.5444
C578       C    0.8219876356    0.5123158043    0.5058764753          0.5536
C579       C    0.8355266581    0.4857591489    0.5110289355          0.5647
C580       C    0.8652407941    0.4800051133    0.5099920014          0.5657
C581       C    0.7912894503    0.5154244008    0.5043529460          0.5557
H582       H    0.8341740058    0.5553228776    0.4904875149          0.5365
H583       H    0.8859236710    0.5453050817    0.4848517490          0.5404
H584       H    0.8731645713    0.4568515152    0.5118394538         -0.4228
O585       O    0.8237285258    0.4645570592    0.4960699470         -0.4134
H586       H    0.8366554770    0.4756985345    0.4810999856         -0.4125
C587       C    0.7629300699    0.5134928109    0.5068979926          0.5581
N588       N    0.7333769763    0.5119967952    0.5175865543          0.5558
N589       N    0.7069715060    0.5089674885    0.5039858686          0.5679
C590       C    0.6726304722    0.5056332527    0.4941321312         -0.4212
C591       C    0.6466302430    0.4963044660    0.5171461877         -0.4265
C592       C    0.6150293142    0.5000000000    0.5000000000         -0.4157
N593       N    0.6225955009    0.5275756886    0.4829025864         -0.4226
N594       N    0.6556203955    0.5291911590    0.4774406923         -0.4236
H595       H    0.6585814640    0.5274752108    0.4548118339           -0.41
H596       H    0.6183492098    0.5461112635    0.4956120415          0.5599
H597       H    0.6497245879    0.4732775188    0.5249852035          -0.418
H598       H    0.6131838934    0.4815624218    0.4838970609         -0.3957
H599       H    0.6472645540    0.5112130184    0.5366262845          0.5537
H600       H    0.6735230252    0.4868904641    0.4780306299         -0.4013
C549       C    1.1150293142    0.5000000000    0.5000000000          0.5579
C550       C    1.1278024736    0.5028279289    0.4722343658          0.5468
C551       C    1.1577523739    0.4989872029    0.4666218425          0.5444
C552       C    1.1780123644    0.4928182309    0.4883968026          0.5536
C553       C    1.1644733419    0.4905862306    0.5153564385          0.5647
C554       C    1.1347592059    0.4922431540    0.5209634665          0.5657
C555       C    1.2087105497    0.4939944392    0.4851408777          0.5557
H556       H    1.1658259942    0.5034358286    0.4439705145          0.5365
H557       H    1.1140763290    0.5101282514    0.4533155437          0.5404
H558       H    1.1268354287    0.4929262187    0.5441806069         -0.4228
O559       O    1.1762714742    0.5077635720    0.5348048031         -0.4134
H560       H    1.1633445230    0.5214322343    0.5221004774         -0.4125
C561       C    1.2370699301    0.4916746993    0.4873379458          0.5581
N562       N    1.2666230237    0.4812124050    0.4899881937          0.5558
N563       N    1.2930284940    0.4950619700    0.4915195013          0.5679
C564       C    1.3273695278    0.5052200195    0.4937616655         -0.4212
C565       C    1.3533697570    0.4833577766    0.5055394156         -0.4265
C566       C    1.3849706858    0.5000000000    0.5000000000         -0.4157
N567       N    1.3774044991    0.5139951298    0.4707275471         -0.4226
N568       N    1.3443796045    0.5192487955    0.4685273135         -0.4236
H569       H    1.3414185360    0.5419300022    0.4677706271           -0.41
H570       H    1.3816507902    0.4993441300    0.4536850712          0.5599
H571       H    1.3502754121    0.4780710761    0.5292826517          -0.418
H572       H    1.3868161066    0.5180136681    0.5165757865         -0.3957
H573       H    1.3527354460    0.4623710299    0.4928391963          0.5537
H574       H    1.3264769748    0.5232654709    0.5106410065         -0.4013
C523       C    0.8849706858    0.5000000000    0.0000000000          0.5579
C524       C    0.8721975264    0.4815163519   -0.0209112978          0.5468
C525       C    0.8422476261    0.4813651662   -0.0277104696          0.5412
C526       C    0.8219876356    0.4990711893   -0.0136143053          0.5536
C527       C    0.8355266581    0.5166007846    0.0069895071          0.5647
C528       C    0.8652407941    0.5185231265    0.0125111698          0.5657
C529       C    0.7912894503    0.4962174732   -0.0155741057          0.5557
H530       H    0.8341740058    0.4645460631   -0.0435215639          0.5365
H531       H    0.8859236710    0.4645560769   -0.0320273048          0.5404
H532       H    0.8731645713    0.5315025231    0.0317735022         -0.4228
O533       O    0.8237285258    0.5139814275    0.0328049852         -0.4134
H534       H    0.8366554770    0.4954695479    0.0304507270         -0.4125
C535       C    0.7629300699    0.4993830605   -0.0151412560          0.5581
N536       N    0.7333769763    0.5094287288   -0.0190868820          0.5558
N537       N    0.7069715060    0.4990685025   -0.0097690998          0.5679
C538       C    0.6726304722    0.4921220594   -0.0020257028         -0.4212
C539       C    0.6466302430    0.5167511532   -0.0052007298         -0.4265
C540       C    0.6150293142    0.5000000000    0.0000000000         -0.4157
N541       N    0.6225955009    0.4715645006   -0.0156257009         -0.4226
N542       N    0.6556203955    0.4660132262   -0.0143507955         -0.4236
H543       H    0.6585814640    0.4471434272   -0.0017436388           -0.41
H544       H    0.6183492098    0.4735336905   -0.0380136457          0.5599
H545       H    0.6497245879    0.5348877258    0.0110089956          -0.418
H546       H    0.6131838934    0.4950265552    0.0239690172         -0.3957
H547       H    0.6472645540    0.5263995072   -0.0277539640          0.5537
H548       H    0.6735230252    0.4872997469    0.0222084832         -0.4013
C497       C    1.1150293142    0.5000000000    0.0000000000          0.5579
C498       C    1.1278024736    0.4915215302   -0.0265902835          0.5468
C499       C    1.1577523739    0.4857613204   -0.0302057472          0.5444
C500       C    1.1780123644    0.4887870257   -0.0077769663          0.5536
C501       C    1.1644733419    0.4974905946    0.0178365396          0.5647
C502       C    1.1347592059    0.5012459457    0.0223177778          0.5657
C503       C    1.2087105497    0.4885673395   -0.0112318543          0.5557
H504       H    1.1658259942    0.4808085021   -0.0527521997          0.5365
H505       H    1.1140763290    0.4906722506   -0.0468509662          0.5404
H506       H    1.1268354287    0.5111304307    0.0433367963         -0.4228
O507       O    1.1762714742    0.5209984021    0.0288221178         -0.4134
H508       H    1.1633445230    0.5284673365    0.0117210291         -0.4125
C509       C    1.2370699301    0.4873161140   -0.0082920012          0.5581
N510       N    1.2666230237    0.4787784274   -0.0016896287          0.5558
N511       N    1.2930284940    0.4920898669   -0.0058079938          0.5679
C512       C    1.3273695278    0.5022994446   -0.0078024339         -0.4212
C513       C    1.3533697570    0.4869470634    0.0117162098         -0.4265
C514       C    1.3849706858    0.5000000000    0.0000000000         -0.4157
N515       N    1.3774044991    0.5011616095   -0.0324251572         -0.4226
N516       N    1.3443796045    0.5051021444   -0.0365378468         -0.4236
H517       H    1.3414185360    0.5256003248   -0.0462761379           -0.41
H518       H    1.3816507902    0.4809299698   -0.0422118081          0.5599
H519       H    1.3502754121    0.4915667309    0.0355981933          -0.418
H520       H    1.3868161066    0.5231292947    0.0080177719         -0.3957
H521       H    1.3527354460    0.4626367147    0.0084380928          0.5537
H522       H    1.3264769748    0.5255789318    0.0004810402         -0.4013
C471       C    1.0000000000    0.5000000000   -0.3849706858          0.5579
C472       C    0.9854650657    0.4761743141   -0.3721975264          0.5468
C473       C    0.9790124511    0.4740259755   -0.3422476261          0.5444
C474       C    0.9872641437    0.4951000039   -0.3219876356          0.5536
C475       C    1.0017864308    0.5179233904   -0.3355266581          0.5647
C476       C    1.0064962802    0.5213877051   -0.3652407941          0.5657
C477       C    0.9862324459    0.4917954445   -0.2912894503          0.5557
H478       H    0.9688606055    0.4532940445   -0.3341740058          0.5365
H479       H    0.9798413720    0.4566912289   -0.3859236710          0.5404
H480       H    1.0210777174    0.5394676353   -0.3731645713         -0.4228
O481       O    1.0272272440    0.5230287766   -0.3237285258         -0.4134
H482       H    1.0304334202    0.5046452881   -0.3366554770         -0.4125
C483       C    0.9857131003    0.4949479961   -0.2629300699          0.5581
N484       N    0.9789820442    0.5033846009   -0.2333769763          0.5558
N485       N    0.9909393482    0.4962307046   -0.2069715060          0.5679
C486       C    1.0003860784    0.4918749545   -0.1726304722         -0.4212
C487       C    0.9900933316    0.5144743444   -0.1466302430         -0.4265
C488       C    1.0000000000    0.5000000000   -0.1150293142         -0.4157
N489       N    0.9934489252    0.4682222787   -0.1225955009         -0.4226
N490       N    0.9963032878    0.4632933188   -0.1556203955         -0.4236
H491       H    1.0139118235    0.4489772724   -0.1585814640           -0.41
H492       H    0.9714750232    0.4635057745   -0.1183492098          0.5599
H493       H    1.0002378146    0.5365827123   -0.1497245879          -0.418
H494       H    1.0243701689    0.5023116669   -0.1131838934         -0.3957
H495       H    0.9656982604    0.5170472039   -0.1472645540          0.5537
H496       H    1.0249650960    0.4944091921   -0.1735230252         -0.4013
C445       C    1.0000000000    0.5000000000    0.1150293142          0.5579
C446       C    0.9853434421    0.4762489382    0.1278024736          0.5468
C447       C    0.9788799280    0.4741336180    0.1577523739          0.5444
C448       C    0.9872392579    0.4951651826    0.1780123644          0.5536
C449       C    1.0018780444    0.5179140227    0.1644733419          0.5647
C450       C    1.0066055442    0.5213542120    0.1347592059          0.5657
C451       C    0.9861906784    0.4918659411    0.2087105497          0.5557
H452       H    0.9686222190    0.4534538614    0.1658259942          0.5365
H453       H    0.9796202107    0.4567948600    0.1140763290          0.5404
H454       H    1.0212792281    0.5393593554    0.1268354287         -0.4228
O455       O    1.0273446274    0.5228892709    0.1762714742         -0.4134
H456       H    1.0304567724    0.5044896304    0.1633445230         -0.4125
C457       C    0.9856874576    0.4950211068    0.2370699301          0.5581
N458       N    0.9789996233    0.5034920152    0.2666230237          0.5558
N459       N    0.9909201954    0.4962770783    0.2930284940          0.5679
C460       C    1.0003445324    0.4918730868    0.3273695278         -0.4212
C461       C    0.9901674641    0.5145248051    0.3533697570         -0.4265
C462       C    1.0000000000    0.5000000000    0.3849706858         -0.4157
N463       N    0.9932865408    0.4682561877    0.3774044991         -0.4226
N464       N    0.9961156659    0.4633126987    0.3443796045         -0.4236
H465       H    1.0136507777    0.4489068123    0.3414185360           -0.41
H466       H    0.9712888120    0.4636520911    0.3816507902          0.5599
H467       H    1.0004248479    0.5365810183    0.3502754121          -0.418
H468       H    1.0243816693    0.5021870393    0.3868161066         -0.3957
H469       H    0.9657858660    0.5172223556    0.3527354460          0.5537
H470       H    1.0249361856    0.4942816261    0.3264769748         -0.4013
C419       C    1.0000000000   -0.1150293142    0.5000000000          0.5579
C420       C    1.0235962034   -0.1278024736    0.4850954098          0.5468
C421       C    1.0256436901   -0.1577523739    0.4786100884          0.5444
C422       C    1.0047008594   -0.1780123644    0.4871893045          0.5536
C423       C    0.9821066365   -0.1644733419    0.5020656242          0.5647
C424       C    0.9787161654   -0.1347592059    0.5068289070          0.5657
C425       C    1.0079889340   -0.2087105497    0.4861062168          0.5557
H426       H    1.0462148431   -0.1658259942    0.4681362833          0.5365
H427       H    1.0429892524   -0.1140763290    0.4791686746          0.5404
H428       H    0.9608657445   -0.1268354287    0.5216904230         -0.4228
O429       O    0.9773984714   -0.1762714742    0.5275829345         -0.4134
H430       H    0.9958297076   -0.1633445230    0.5305021381         -0.4125
C431       C    1.0048286693   -0.2370699301    0.4856360799          0.5581
N432       N    0.9962881583   -0.2666230237    0.4790373613          0.5558
N433       N    1.0036275895   -0.2930284940    0.4908816891          0.5679
C434       C    1.0081300768   -0.3273695278    0.5002593689         -0.4212
C435       C    0.9853729779   -0.3533697570    0.4903201782         -0.4265
C436       C    1.0000000000   -0.3849706858    0.5000000000         -0.4157
N437       N    1.0316717341   -0.3774044991    0.4929543335         -0.4226
N438       N    1.0366445921   -0.3443796045    0.4957315110         -0.4236
H439       H    1.0512334009   -0.3414185360    0.5131147319           -0.41
H440       H    1.0360451106   -0.3816507902    0.4709095755          0.5599
H441       H    0.9634254405   -0.3502754121    0.5008080791          -0.418
H442       H    0.9980685243   -0.3868161066    0.5244032444         -0.3957
H443       H    0.9824201327   -0.3527354460    0.4659681801          0.5537
H444       H    1.0059793132   -0.3264769748    0.5248749064         -0.4013
C393       C    1.0000000000    0.1150293142    0.5000000000          0.5579
C394       C    0.9941006650    0.1278024736    0.4727213367          0.5468
C395       C    0.9972931488    0.1577523739    0.4667163687          0.5444
C396       C    1.0058463170    0.1780123644    0.4876698509          0.5536
C397       C    1.0110637544    0.1644733419    0.5142138171          0.5647
C398       C    1.0100409054    0.1347592059    0.5199703732          0.5657
C399       C    1.0043151845    0.2087105497    0.4845649924          0.5557
H400       H    0.9903521506    0.1658259942    0.4447005681          0.5365
H401       H    0.9847409183    0.1140763290    0.4547321266          0.5404
H402       H    1.0119450165    0.1268354287    0.5431193806         -0.4228
O403       O    0.9961566990    0.1762714742    0.5354524528         -0.4134
H404       H    0.9811595157    0.1633445230    0.5243476471         -0.4125
C405       C    1.0068649507    0.2370699301    0.4864903479          0.5581
N406       N    1.0175571417    0.2666230237    0.4879602008          0.5558
N407       N    1.0039639103    0.2930284940    0.4910227837          0.5679
C408       C    0.9941183624    0.3273695278    0.4943811247         -0.4212
C409       C    1.0171551805    0.3533697570    0.5036535607         -0.4265
C410       C    1.0000000000    0.3849706858    0.5000000000         -0.4157
N411       N    0.9828351511    0.3774044991    0.4724662368         -0.4226
N412       N    0.9773693198    0.3443796045    0.4708641383         -0.4236
H413       H    0.9547447286    0.3414185360    0.4726354614           -0.41
H414       H    0.9954992056    0.3816507902    0.4538996134          0.5599
H415       H    1.0250505272    0.3502754121    0.5266612544          -0.418
H416       H    0.9839422318    0.3868161066    0.5184769320         -0.3957
H417       H    1.0365987330    0.3527354460    0.4886973790          0.5537
H418       H    0.9780627790    0.3264769748    0.5131632628         -0.4013
C367       C    0.8849706858   -0.0000000000    0.5000000000          0.5579
C368       C    0.8721975264   -0.0178358313    0.5214665029          0.5468
C369       C    0.8422476261   -0.0245317496    0.5226565757          0.5444
C370       C    0.8219876356   -0.0133117285    0.5030016468          0.5536
C371       C    0.8355266581    0.0043662660    0.4825250184          0.5647
C372       C    0.8652407941    0.0095286379    0.4797801918          0.5657
C373       C    0.7912894503   -0.0148116525    0.5061217015          0.5557
H374       H    0.8341740058   -0.0375822442    0.5416975189          0.5365
H375       H    0.8859236710   -0.0262249524    0.5399283334          0.5404
H376       H    0.8731645713    0.0265774037    0.4640054724         -0.4228
O377       O    0.8237285258    0.0302784791    0.4811622434         -0.4134
H378       H    0.8366554770    0.0307853543    0.4998163393         -0.4125
C379       C    0.7629300699   -0.0148684218    0.5029271626          0.5581
N380       N    0.7333769763   -0.0203051284    0.4936037706          0.5558
N381       N    0.7069715060   -0.0095114191    0.5024157619          0.5679
C382       C    0.6726304722   -0.0007960515    0.5080951666         -0.4212
C383       C    0.6466302430   -0.0077033508    0.4842422365         -0.4265
C384       C    0.6150293142   -0.0000000000    0.5000000000         -0.4157
N385       N    0.6225955009   -0.0110893018    0.5304920898         -0.4226
N386       N    0.6556203955   -0.0089797507    0.5357828199         -0.4236
H387       H    0.6585814640    0.0063670343    0.5525006518           -0.41
H388       H    0.6183492098   -0.0335148542    0.5319727595          0.5599
H389       H    0.6497245879    0.0055394286    0.4638383335          -0.418
H390       H    0.6131838934    0.0244478209    0.5012461907         -0.3957
H391       H    0.6472645540   -0.0314676035    0.4781595231          0.5537
H392       H    0.6735230252    0.0238906817    0.5091514195         -0.4013
C341       C    1.1150293142   -0.0000000000    0.5000000000          0.5579
C342       C    1.1278024736    0.0159197509    0.4770764498          0.5468
C343       C    1.1577523739    0.0152772512    0.4703060149          0.5444
C344       C    1.1780123644   -0.0006646924    0.4863702464          0.5536
C345       C    1.1644733419   -0.0156727430    0.5088771835          0.5647
C346       C    1.1347592059   -0.0169382557    0.5145853036          0.5657
C347       C    1.2087105497    0.0019410891    0.4840911204          0.5557
H348       H    1.1658259942    0.0301383943    0.4526419452          0.5365
H349       H    1.1140763290    0.0314684614    0.4640589945          0.5404
H350       H    1.1268354287   -0.0275835256    0.5352294411         -0.4228
O351       O    1.1762714742   -0.0100616518    0.5342112632         -0.4134
H352       H    1.1633445230    0.0080495369    0.5297149243         -0.4125
C353       C    1.2370699301   -0.0011524505    0.4848900660          0.5581
N354       N    1.2666230237   -0.0115896043    0.4821424789          0.5558
N355       N    1.2930284940   -0.0002137460    0.4901889190          0.5679
C356       C    1.3273695278    0.0075880639    0.4970696917         -0.4212
C357       C    1.3533697570   -0.0172432366    0.4967875997         -0.4265
C358       C    1.3849706858   -0.0000000000    0.5000000000         -0.4157
N359       N    1.3774044991    0.0264199427    0.4811658081         -0.4226
N360       N    1.3443796045    0.0320819938    0.4817848469         -0.4236
H361       H    1.3414185360    0.0522928783    0.4921061771           -0.41
H362       H    1.3816507902    0.0218541707    0.4591600928          0.5599
H363       H    1.3502754121   -0.0333663928    0.5150011743          -0.418
H364       H    1.3868161066    0.0077338645    0.5232257675         -0.3957
H365       H    1.3527354460   -0.0294550795    0.4755129669          0.5537
H366       H    1.3264769748    0.0152027402    0.5205764390         -0.4013
C315       C   -0.0000000000   -0.3849706858    0.0000000000          0.5579
C316       C   -0.0073828214   -0.3721975264    0.0269150807          0.5468
C317       C   -0.0129901943   -0.3422476261    0.0307633225          0.5444
C318       C   -0.0108852047   -0.3219876356    0.0082294786          0.5536
C319       C   -0.0032374859   -0.3355266581   -0.0177188584          0.5647
C320       C    0.0003312662   -0.3652407941   -0.0223500749          0.5657
C321       C   -0.0109632720   -0.2912894503    0.0116904638          0.5557
H322       H   -0.0170158643   -0.3341740058    0.0534936307          0.5365
H323       H   -0.0074019665   -0.3859236710    0.0471935465          0.5404
H324       H    0.0093469982   -0.3731645713   -0.0437561199         -0.4228
O325       O    0.0198008926   -0.3237285258   -0.0296575795         -0.4134
H326       H    0.0279636424   -0.3366554770   -0.0128765863         -0.4125
C327       C   -0.0123337990   -0.2629300699    0.0088042972          0.5581
N328       N   -0.0211346135   -0.2333769763    0.0025569714          0.5558
N329       N   -0.0076657371   -0.2069715060    0.0061269464          0.5679
C330       C    0.0026169295   -0.1726304722    0.0077017596         -0.4212
C331       C   -0.0135216272   -0.1466302430   -0.0111720330         -0.4265
C332       C   -0.0000000000   -0.1150293142    0.0000000000         -0.4157
N333       N    0.0024880420   -0.1225955009    0.0323504220         -0.4226
N334       N    0.0065936370   -0.1556203955    0.0362983481         -0.4236
H335       H    0.0274732957   -0.1585814640    0.0451893305           -0.41
H336       H   -0.0173259962   -0.1183492098    0.0429571025          0.5599
H337       H   -0.0098835022   -0.1497245879   -0.0352231143          -0.418
H338       H    0.0227816777   -0.1131838934   -0.0089579072         -0.3957
H339       H   -0.0376773987   -0.1472645540   -0.0069014581          0.5537
H340       H    0.0255377966   -0.1735230252   -0.0015277756         -0.4013
C289       C    0.0000000000    0.1150293142    0.0000000000          0.5579
C290       C    0.0105215276    0.1278024736   -0.0258500499          0.5468
C291       C    0.0165455651    0.1577523739   -0.0290064034          0.5444
C292       C    0.0117840442    0.1780123644   -0.0068810102          0.5536
C293       C    0.0011140942    0.1644733419    0.0179777099          0.5647
C294       C   -0.0029785198    0.1347592059    0.0221531940          0.5657
C295       C    0.0122718590    0.2087105497   -0.0103083342          0.5557
H296       H    0.0232375128    0.1658259942   -0.0510991796          0.5365
H297       H    0.0129445391    0.1140763290   -0.0459832453          0.5404
H298       H   -0.0144683496    0.1268354287    0.0423394764         -0.4228
O299       O   -0.0231771501    0.1762714742    0.0271010532         -0.4134
H300       H   -0.0292929594    0.1633445230    0.0094707073         -0.4125
C301       C    0.0132905677    0.2370699301   -0.0072800452          0.5581
N302       N    0.0212887029    0.2666230237   -0.0000334426          0.5558
N303       N    0.0083380258    0.2930284940   -0.0051749710          0.5679
C304       C   -0.0016854358    0.3273695278   -0.0079576835         -0.4212
C305       C    0.0121018361    0.3533697570    0.0126962313         -0.4265
C306       C    0.0000000000    0.3849706858    0.0000000000         -0.4157
N307       N    0.0013646289    0.3774044991   -0.0324172476         -0.4226
N308       N   -0.0022439896    0.3443796045   -0.0368240497         -0.4236
H309       H   -0.0219223866    0.3414185360   -0.0481276067           -0.41
H310       H    0.0222963578    0.3816507902   -0.0406001875          0.5599
H311       H    0.0056381235    0.3502754121    0.0361464101          -0.418
H312       H   -0.0236829798    0.3868161066    0.0061939814         -0.3957
H313       H    0.0365935390    0.3527354460    0.0113194258          0.5537
H314       H   -0.0255388248    0.3264769748   -0.0015104904         -0.4013
C263       C   -0.3849706858   -0.0000000000    0.0000000000          0.5579
C264       C   -0.3721975264    0.0240487694   -0.0141627792          0.5468
C265       C   -0.3422476261    0.0262971619   -0.0205812156          0.5444
C266       C   -0.3219876356    0.0050973979   -0.0126581410          0.5536
C267       C   -0.3355266581   -0.0179489966    0.0015075746          0.5647
C268       C   -0.3652407941   -0.0214861128    0.0061629979          0.5657
C269       C   -0.2912894503    0.0084175969   -0.0136383408          0.5557
H270       H   -0.3341740058    0.0471844099   -0.0304095318          0.5365
H271       H   -0.3859236710    0.0436169270   -0.0194829057          0.5404
H272       H   -0.3731645713   -0.0397905437    0.0204615990         -0.4228
O273       O   -0.3237285258   -0.0234492734    0.0268659440         -0.4134
H274       H   -0.3366554770   -0.0051178503    0.0303575259         -0.4125
C275       C   -0.2629300699    0.0052735001   -0.0142066338          0.5581
N276       N   -0.2333769763   -0.0030574428   -0.0210680334          0.5558
N277       N   -0.2069715060    0.0039096985   -0.0090009586          0.5679
C278       C   -0.1726304722    0.0081180615    0.0005123452         -0.4212
C279       C   -0.1466302430   -0.0143185843   -0.0101304920         -0.4265
C280       C   -0.1150293142   -0.0000000000    0.0000000000         -0.4157
N281       N   -0.1225955009    0.0318757252   -0.0060562608         -0.4226
N282       N   -0.1556203955    0.0367597150   -0.0031256165         -0.4236
H283       H   -0.1585814640    0.0508002857    0.0147033510           -0.41
H284       H   -0.1183492098    0.0369332698   -0.0279541836          0.5599
H285       H   -0.1497245879   -0.0365819884   -0.0003309358          -0.418
H286       H   -0.1131838934   -0.0026902507    0.0243312862         -0.3957
H287       H   -0.1472645540   -0.0165118825   -0.0345626133          0.5537
H288       H   -0.1735230252    0.0052020203    0.0250489947         -0.4013
C237       C    0.3849706858   -0.0000000000    0.0000000000          0.5579
C238       C    0.3721975264   -0.0276712997   -0.0036368660          0.5468
C239       C    0.3422476261   -0.0322494638   -0.0086659821          0.5444
C240       C    0.3219876356   -0.0096393094   -0.0096589705          0.5536
C241       C    0.3355266581    0.0171104957   -0.0056276280          0.5647
C242       C    0.3652407941    0.0221858078   -0.0027249803          0.5657
C243       C    0.2912894503   -0.0130785142   -0.0092635168          0.5557
H244       H    0.3341740058   -0.0553166159   -0.0095488308          0.5365
H245       H    0.3859236710   -0.0477622812   -0.0008856836          0.5404
H246       H    0.3731645713    0.0446227804    0.0032820527         -0.4228
O247       O    0.3237285258    0.0320844647    0.0155638843         -0.4134
H248       H    0.3366554770    0.0165758599    0.0259424871         -0.4125
C249       C    0.2629300699   -0.0104066253   -0.0110154617          0.5581
N250       N    0.2333769763   -0.0054201036   -0.0205871918          0.5558
N251       N    0.2069715060   -0.0071166907   -0.0067569010          0.5679
C252       C    0.1726304722   -0.0072720730    0.0036444992         -0.4212
C253       C    0.1466302430    0.0092201739   -0.0149210294         -0.4265
C254       C    0.1150293142   -0.0000000000    0.0000000000         -0.4157
N255       N    0.1225955009   -0.0317072743    0.0068839604         -0.4226
N256       N    0.1556203955   -0.0350573443    0.0114903758         -0.4236
H257       H    0.1585814640   -0.0410127043    0.0333888551           -0.41
H258       H    0.1183492098   -0.0449212276   -0.0112954020          0.5599
H259       H    0.1497245879    0.0335427769   -0.0146025175          -0.418
H260       H    0.1131838934    0.0119860319    0.0213444132         -0.3957
H261       H    0.1472645540    0.0016898244   -0.0382669700          0.5537
H262       H    0.1735230252    0.0050020545    0.0250896912         -0.4013
C211       C   -0.0000000000    0.0000000000   -0.3849706858          0.5579
C212       C    0.0234439030   -0.0151430194   -0.3721975264          0.5468
C213       C    0.0254255428   -0.0216487629   -0.3422476261          0.5444
C214       C    0.0045707558   -0.0128576899   -0.3219876356          0.5536
C215       C   -0.0178715048    0.0022469033   -0.3355266581          0.5647
C216       C   -0.0212135163    0.0070443105   -0.3652407941          0.5657
C217       C    0.0078476821   -0.0139740532   -0.2912894503          0.5557
H218       H    0.0458894658   -0.0323305598   -0.3341740058          0.5365
H219       H    0.0427758762   -0.0212660375   -0.3859236710          0.5404
H220       H   -0.0389123687    0.0220860128   -0.3731645713         -0.4228
O221       O   -0.0223207589    0.0278106291   -0.3237285258         -0.4134
H222       H   -0.0038608777    0.0305428452   -0.3366554770         -0.4125
C223       C    0.0046828140   -0.0144121303   -0.2629300699          0.5581
N224       N   -0.0039241494   -0.0209239346   -0.2333769763          0.5558
N225       N    0.0035349707   -0.0091546153   -0.2069715060          0.5679
C226       C    0.0081322883    0.0001769409   -0.1726304722         -0.4212
C227       C   -0.0147243950   -0.0095310502   -0.1466302430         -0.4265
C228       C    0.0000000000    0.0000000000   -0.1150293142         -0.4157
N229       N    0.0315986848   -0.0073663611   -0.1225955009         -0.4226
N230       N    0.0365994395   -0.0046397362   -0.1556203955         -0.4236
H231       H    0.0513637127    0.0125947046   -0.1585814640           -0.41
H232       H    0.0357483687   -0.0294543194   -0.1183492098          0.5599
H233       H   -0.0365644888    0.0011787943   -0.1497245879          -0.418
H234       H   -0.0016840006    0.0244215700   -0.1131838934         -0.3957
H235       H   -0.0179239449   -0.0338518640   -0.1472645540          0.5537
H236       H    0.0062311631    0.0248130159   -0.1735230252         -0.4013
C185       C    0.0000000000    0.0000000000    0.3849706858          0.5579
C186       C   -0.0238766067    0.0144511342    0.3721975264          0.5468
C187       C   -0.0305934360    0.0133853961    0.3422476261          0.5444
C188       C   -0.0135612605   -0.0015179626    0.3219876356          0.5536
C189       C    0.0098423895   -0.0150853117    0.3355266581          0.5647
C190       C    0.0156186255   -0.0159904384    0.3652407941          0.5657
C191       C   -0.0159992834    0.0009397920    0.2912894503          0.5557
H192       H   -0.0491545362    0.0271097719    0.3341740058          0.5365
H193       H   -0.0378433450    0.0291530646    0.3859236710          0.5404
H194       H    0.0368895973   -0.0253203874    0.3731645713         -0.4228
O195       O    0.0347748110   -0.0078968278    0.3237285258         -0.4134
H196       H    0.0291517573    0.0098968083    0.3366554770         -0.4125
C197       C   -0.0150079465   -0.0020975675    0.2629300699          0.5581
N198       N   -0.0170957239   -0.0126864579    0.2333769763          0.5558
N199       N   -0.0097783755   -0.0008284747    0.2069715060          0.5679
C200       C   -0.0034003102    0.0073894053    0.1726304722         -0.4212
C201       C   -0.0021249384   -0.0174107254    0.1466302430         -0.4265
C202       C   -0.0000000000   -0.0000000000    0.1150293142         -0.4157
N203       N   -0.0204536505    0.0251870668    0.1225955009         -0.4226
N204       N   -0.0201908372    0.0308767910    0.1556203955         -0.4236
H205       H   -0.0111570259    0.0516950514    0.1585814640           -0.41
H206       H   -0.0421297972    0.0192505321    0.1183492098          0.5599
H207       H    0.0170637131   -0.0323601776    0.1497245879          -0.418
H208       H    0.0226951608    0.0091748905    0.1131838934         -0.3957
H209       H   -0.0225920366   -0.0309324487    0.1472645540          0.5537
H210       H    0.0195827505    0.0164629595    0.1735230252         -0.4013
loop_
_geom_bond_atom_site_label_1
_geom_bond_atom_site_label_2
_geom_bond_distance
_geom_bond_site_symmetry_2
_ccdc_geom_bond_type
Zn1          O5 1.942       .   S
Zn1          O6 1.922       .   S
Zn1         O10 1.922       .   S
Zn1         O17 1.922       .   S
Zn2          O5 1.942       .   S
Zn2          O7 1.922       .   S
Zn2          O9 1.922       .   S
Zn2         O13 1.922       .   S
Zn3          O5 1.942       .   S
Zn3          O8 1.922       .   S
Zn3         O11 1.922       .   S
Zn3         O14 1.922       .   S
Zn4          O5 1.942       .   S
Zn4         O12 1.922       .   S
Zn4         O15 1.922       .   S
Zn4         O16 1.922       .   S
O6          C18 1.304       .   A
O7          C19 1.304       .   A
O8          C20 1.304       .   A
O9          C18 1.304       .   A
O10         C20 1.304       .   A
O11         C19 1.304       .   A
O12         C21 1.304       .   A
O13         C22 1.304       .   A
O14         C21 1.304       .   A
O15         C22 1.304       .   A
O16         C23 1.304       .   A
O17         C23 1.304       .   A
C18        C202 1.540       .   S
C19        C254 1.540       .   S
C20        C332 1.540       .   S
C21        C228 1.540       .   S
C22        C289 1.540       .   S
C23        C280 1.540       .   S
Zn24        O28 1.942       .   S
Zn24        O29 1.922       .   S
Zn24        O33 1.922       .   S
Zn24        O40 1.922       .   S
Zn25        O28 1.942       .   S
Zn25        O30 1.922       .   S
Zn25        O32 1.922       .   S
Zn25        O36 1.922       .   S
Zn26        O28 1.942       .   S
Zn26        O31 1.922       .   S
Zn26        O34 1.922       .   S
Zn26        O37 1.922       .   S
Zn27        O28 1.942       .   S
Zn27        O35 1.922       .   S
Zn27        O38 1.922       .   S
Zn27        O39 1.922       .   S
O29         C41 1.304       .   A
O30         C42 1.304       .   A
O31         C43 1.304       .   A
O32         C41 1.304       .   A
O33         C43 1.304       .   A
O34         C42 1.304       .   A
O35         C44 1.304       .   A
O36         C45 1.304       .   A
O37         C44 1.304       .   A
O38         C45 1.304       .   A
O39         C46 1.304       .   A
O40         C46 1.304       .   A
C41        C185 1.540   1_655   S
C42        C341 1.540       .   S
C43        C393 1.540       .   S
C44        C211 1.540   1_656   S
C45        C419 1.540       .   S
C46        C367 1.540       .   S
Zn47        O51 1.942       .   S
Zn47        O52 1.922       .   S
Zn47        O56 1.922       .   S
Zn47        O63 1.922       .   S
Zn48        O51 1.942       .   S
Zn48        O53 1.922       .   S
Zn48        O55 1.922       .   S
Zn48        O59 1.922       .   S
Zn49        O51 1.942       .   S
Zn49        O54 1.922       .   S
Zn49        O57 1.922       .   S
Zn49        O60 1.922       .   S
Zn50        O51 1.942       .   S
Zn50        O58 1.922       .   S
Zn50        O61 1.922       .   S
Zn50        O62 1.922       .   S
O52         C64 1.304       .   A
O53         C65 1.304       .   A
O54         C66 1.304       .   A
O55         C64 1.304       .   A
O56         C66 1.304       .   A
O57         C65 1.304       .   A
O58         C67 1.304       .   A
O59         C68 1.304       .   A
O60         C67 1.304       .   A
O61         C68 1.304       .   A
O62         C69 1.304       .   A
O63         C69 1.304       .   A
C64        C306 1.540   1_655   S
C65        C445 1.540       .   S
C66        C497 1.540       .   S
C67        C315 1.540   1_665   S
C68        C523 1.540       .   S
C69        C488 1.540       .   S
Zn70        O74 1.942       .   S
Zn70        O75 1.922       .   S
Zn70        O79 1.922       .   S
Zn70        O86 1.922       .   S
Zn71        O74 1.942       .   S
Zn71        O76 1.922       .   S
Zn71        O78 1.922       .   S
Zn71        O82 1.922       .   S
Zn72        O74 1.942       .   S
Zn72        O77 1.922       .   S
Zn72        O80 1.922       .   S
Zn72        O83 1.922       .   S
Zn73        O74 1.942       .   S
Zn73        O81 1.922       .   S
Zn73        O84 1.922       .   S
Zn73        O85 1.922       .   S
O75         C87 1.304       .   A
O76         C88 1.304       .   A
O77         C89 1.304       .   A
O78         C87 1.304       .   A
O79         C89 1.304       .   A
O80         C88 1.304       .   A
O81         C90 1.304       .   A
O82         C91 1.304       .   A
O83         C90 1.304       .   A
O84         C91 1.304       .   A
O85         C92 1.304       .   A
O86         C92 1.304       .   A
C87        C410 1.540       .   S
C88        C462 1.540       .   S
C89        C575 1.540       .   S
C90        C436 1.540   1_565   S
C91        C549 1.540       .   S
C92        C471 1.540   1_556   S
Zn93        O97 1.942       .   S
Zn93        O98 1.922       .   S
Zn93       O102 1.922       .   S
Zn93       O109 1.922       .   S
Zn94        O97 1.942       .   S
Zn94        O99 1.922       .   S
Zn94       O101 1.922       .   S
Zn94       O105 1.922       .   S
Zn95        O97 1.942       .   S
Zn95       O100 1.922       .   S
Zn95       O103 1.922       .   S
Zn95       O106 1.922       .   S
Zn96        O97 1.942       .   S
Zn96       O104 1.922       .   S
Zn96       O107 1.922       .   S
Zn96       O108 1.922       .   S
O98        C110 1.304       .   A
O99        C111 1.304       .   A
O100       C112 1.304       .   A
O101       C110 1.304       .   A
O102       C112 1.304       .   A
O103       C111 1.304       .   A
O104       C113 1.304       .   A
O105       C114 1.304       .   A
O106       C113 1.304       .   A
O107       C114 1.304       .   A
O108       C115 1.304       .   A
O109       C115 1.304       .   A
C110       C237 1.540   1_565   S
C111       C601 1.540       .   S
C112       C679 1.540       .   S
C113       C263 1.540   1_665   S
C114       C670 1.540       .   S
C115       C627 1.540       .   S
Zn116      O120 1.942       .   S
Zn116      O121 1.922       .   S
Zn116      O125 1.922       .   S
Zn116      O132 1.922       .   S
Zn117      O120 1.942       .   S
Zn117      O122 1.922       .   S
Zn117      O124 1.922       .   S
Zn117      O128 1.922       .   S
Zn118      O120 1.942       .   S
Zn118      O123 1.922       .   S
Zn118      O126 1.922       .   S
Zn118      O129 1.922       .   S
Zn119      O120 1.942       .   S
Zn119      O127 1.922       .   S
Zn119      O130 1.922       .   S
Zn119      O131 1.922       .   S
O121       C133 1.304       .   A
O122       C134 1.304       .   A
O123       C135 1.304       .   A
O124       C133 1.304       .   A
O125       C135 1.304       .   A
O126       C134 1.304       .   A
O127       C136 1.304       .   A
O128       C137 1.304       .   A
O129       C136 1.304       .   A
O130       C137 1.304       .   A
O131       C138 1.304       .   A
O132       C138 1.304       .   A
C133       C358 1.540   1_465   S
C134       C705 1.540       .   S
C135       C644 1.540   1_556   S
C136       C384 1.540   1_565   S
C137       C618 1.540       .   S
C138       C748 1.540       .   S
Zn139      O143 1.942       .   S
Zn139      O144 1.922       .   S
Zn139      O148 1.922       .   S
Zn139      O155 1.922       .   S
Zn140      O143 1.942       .   S
Zn140      O145 1.922       .   S
Zn140      O147 1.922       .   S
Zn140      O151 1.922       .   S
Zn141      O143 1.942       .   S
Zn141      O146 1.922       .   S
Zn141      O149 1.922       .   S
Zn141      O152 1.922       .   S
Zn142      O143 1.942       .   S
Zn142      O150 1.922       .   S
Zn142      O153 1.922       .   S
Zn142      O154 1.922       .   S
O144       C156 1.304       .   A
O145       C157 1.304       .   A
O146       C158 1.304       .   A
O147       C156 1.304       .   A
O148       C158 1.304       .   A
O149       C157 1.304       .   A
O150       C159 1.304       .   A
O151       C160 1.304       .   A
O152       C159 1.304       .   A
O153       C160 1.304       .   A
O154       C161 1.304       .   A
O155       C161 1.304       .   A
C156       C514 1.540   1_455   S
C157       C696 1.540       .   S
C158       C757 1.540       .   S
C159       C540 1.540       .   S
C160       C783 1.540       .   S
C161       C653 1.540   1_545   S
Zn162      O166 1.942       .   S
Zn162      O167 1.922       .   S
Zn162      O171 1.922       .   S
Zn162      O178 1.922       .   S
Zn163      O166 1.942       .   S
Zn163      O168 1.922       .   S
Zn163      O170 1.922       .   S
Zn163      O174 1.922       .   S
Zn164      O166 1.942       .   S
Zn164      O169 1.922       .   S
Zn164      O172 1.922       .   S
Zn164      O175 1.922       .   S
Zn165      O166 1.942       .   S
Zn165      O173 1.922       .   S
Zn165      O176 1.922       .   S
Zn165      O177 1.922       .   S
O167       C179 1.304       .   A
O168       C180 1.304       .   A
O169       C181 1.304       .   A
O170       C179 1.304       .   A
O171       C181 1.304       .   A
O172       C180 1.304       .   A
O173       C182 1.304       .   A
O174       C183 1.304       .   A
O175       C182 1.304       .   A
O176       C183 1.304       .   A
O177       C184 1.304       .   A
O178       C184 1.304       .   A
C179       C774 1.540       .   S
C180       C731 1.540       .   S
C181       C566 1.540   1_455   S
C182       C800 1.540   1_556   S
C183       C592 1.540       .   S
C184       C722 1.540   1_545   S
C783       C784 0.025       .   A
C783       C788 0.024       .   A
C784       C785 0.025       .   A
C784       H791 0.020       .   A
C785       C786 0.025       .   A
C785       H790 0.020       .   A
C786       C787 0.025       .   A
C786       C789 0.025       .   A
C787       C788 0.025       .   A
C787       O793 0.023       .   A
C788       H792 0.020       .   A
C789       C795 0.023       .   A
O793       H794 0.019       .   A
C795       N796 0.026       .   A
N796       N797 0.024       .   A
N797       C798 0.029       .   A
C798       C799 0.029       .   A
C798       N802 0.027       .   A
C798       H808 0.020       .   A
C799       C800 0.030       .   A
C799       H805 0.020       .   A
C799       H807 0.020       .   A
C800       N801 0.027       .   A
C800       H806 0.020       .   A
N801       N802 0.027       .   A
N801       H804 0.019       .   A
N802       H803 0.019       .   A
C757       C758 0.025       .   A
C757       C762 0.024       .   A
C758       C759 0.025       .   A
C758       H765 0.020       .   A
C759       C760 0.025       .   A
C759       H764 0.020       .   A
C760       C761 0.025       .   A
C760       C763 0.025       .   A
C761       C762 0.025       .   A
C761       O767 0.023       .   A
C762       H766 0.020       .   A
C763       C769 0.023       .   A
O767       H768 0.019       .   A
C769       N770 0.026       .   A
N770       N771 0.024       .   A
N771       C772 0.029       .   A
C772       C773 0.029       .   A
C772       N776 0.027       .   A
C772       H782 0.020       .   A
C773       C774 0.030       .   A
C773       H779 0.020       .   A
C773       H781 0.020       .   A
C774       N775 0.027       .   A
C774       H780 0.020       .   A
N775       N776 0.027       .   A
N775       H778 0.019       .   A
N776       H777 0.019       .   A
C731       C732 0.025       .   A
C731       C736 0.024       .   A
C732       C733 0.025       .   A
C732       H739 0.020       .   A
C733       C734 0.025       .   A
C733       H738 0.020       .   A
C734       C735 0.025       .   A
C734       C737 0.025       .   A
C735       C736 0.025       .   A
C735       O741 0.023       .   A
C736       H740 0.020       .   A
C737       C743 0.023       .   A
O741       H742 0.019       .   A
C743       N744 0.026       .   A
N744       N745 0.024       .   A
N745       C746 0.029       .   A
C746       C747 0.029       .   A
C746       N750 0.027       .   A
C746       H756 0.020       .   A
C747       C748 0.030       .   A
C747       H753 0.020       .   A
C747       H755 0.020       .   A
C748       N749 0.027       .   A
C748       H754 0.020       .   A
N749       N750 0.027       .   A
N749       H752 0.019       .   A
N750       H751 0.019       .   A
C705       C706 0.025       .   A
C705       C710 0.024       .   A
C706       C707 0.025       .   A
C706       H713 0.020       .   A
C707       C708 0.025       .   A
C707       H712 0.020       .   A
C708       C709 0.025       .   A
C708       C711 0.025       .   A
C709       C710 0.025       .   A
C709       O715 0.023       .   A
C710       H714 0.020       .   A
C711       C717 0.023       .   A
O715       H716 0.019       .   A
C717       N718 0.026       .   A
N718       N719 0.024       .   A
N719       C720 0.029       .   A
C720       C721 0.029       .   A
C720       N724 0.027       .   A
C720       H730 0.020       .   A
C721       C722 0.030       .   A
C721       H727 0.020       .   A
C721       H729 0.020       .   A
C722       N723 0.027       .   A
C722       H728 0.020       .   A
N723       N724 0.027       .   A
N723       H726 0.019       .   A
N724       H725 0.019       .   A
C679       C680 0.025       .   A
C679       C684 0.024       .   A
C680       C681 0.025       .   A
C680       H687 0.020       .   A
C681       C682 0.025       .   A
C681       H686 0.020       .   A
C682       C683 0.025       .   A
C682       C685 0.025       .   A
C683       C684 0.025       .   A
C683       O689 0.023       .   A
C684       H688 0.020       .   A
C685       C691 0.023       .   A
O689       H690 0.019       .   A
C691       N692 0.026       .   A
N692       N693 0.024       .   A
N693       C694 0.029       .   A
C694       C695 0.029       .   A
C694       N698 0.027       .   A
C694       H704 0.020       .   A
C695       C696 0.030       .   A
C695       H701 0.020       .   A
C695       H703 0.020       .   A
C696       N697 0.027       .   A
C696       H702 0.020       .   A
N697       N698 0.027       .   A
N697       H700 0.019       .   A
N698       H699 0.019       .   A
C653       C654 0.025       .   A
C653       C658 0.024       .   A
C654       C655 0.025       .   A
C654       H661 0.020       .   A
C655       C656 0.025       .   A
C655       H660 0.020       .   A
C656       C657 0.025       .   A
C656       C659 0.025       .   A
C657       C658 0.025       .   A
C657       O663 0.023       .   A
C658       H662 0.020       .   A
C659       C665 0.023       .   A
O663       H664 0.019       .   A
C665       N666 0.026       .   A
N666       N667 0.024       .   A
N667       C668 0.029       .   A
C668       C669 0.029       .   A
C668       N672 0.027       .   A
C668       H678 0.020       .   A
C669       C670 0.030       .   A
C669       H675 0.020       .   A
C669       H677 0.020       .   A
C670       N671 0.027       .   A
C670       H676 0.020       .   A
N671       N672 0.027       .   A
N671       H674 0.019       .   A
N672       H673 0.019       .   A
C627       C628 0.025       .   A
C627       C632 0.024       .   A
C628       C629 0.025       .   A
C628       H635 0.020       .   A
C629       C630 0.025       .   A
C629       H634 0.020       .   A
C630       C631 0.025       .   A
C630       C633 0.025       .   A
C631       C632 0.025       .   A
C631       O637 0.023       .   A
C632       H636 0.020       .   A
C633       C639 0.023       .   A
O637       H638 0.019       .   A
C639       N640 0.026       .   A
N640       N641 0.024       .   A
N641       C642 0.029       .   A
C642       C643 0.029       .   A
C642       N646 0.027       .   A
C642       H652 0.020       .   A
C643       C644 0.030       .   A
C643       H649 0.020       .   A
C643       H651 0.020       .   A
C644       N645 0.027       .   A
C644       H650 0.020       .   A
N645       N646 0.027       .   A
N645       H648 0.019       .   A
N646       H647 0.019       .   A
C601       C602 0.025       .   A
C601       C606 0.024       .   A
C602       C603 0.025       .   A
C602       H609 0.020       .   A
C603       C604 0.025       .   A
C603       H608 0.020       .   A
C604       C605 0.025       .   A
C604       C607 0.025       .   A
C605       C606 0.025       .   A
C605       O611 0.023       .   A
C606       H610 0.020       .   A
C607       C613 0.023       .   A
O611       H612 0.019       .   A
C613       N614 0.026       .   A
N614       N615 0.024       .   A
N615       C616 0.029       .   A
C616       C617 0.029       .   A
C616       N620 0.027       .   A
C616       H626 0.020       .   A
C617       C618 0.030       .   A
C617       H623 0.020       .   A
C617       H625 0.020       .   A
C618       N619 0.027       .   A
C618       H624 0.020       .   A
N619       N620 0.027       .   A
N619       H622 0.019       .   A
N620       H621 0.019       .   A
C575       C576 0.025       .   A
C575       C580 0.024       .   A
C576       C577 0.025       .   A
C576       H583 0.020       .   A
C577       C578 0.025       .   A
C577       H582 0.020       .   A
C578       C579 0.025       .   A
C578       C581 0.025       .   A
C579       C580 0.025       .   A
C579       O585 0.023       .   A
C580       H584 0.020       .   A
C581       C587 0.023       .   A
O585       H586 0.019       .   A
C587       N588 0.026       .   A
N588       N589 0.024       .   A
N589       C590 0.029       .   A
C590       C591 0.029       .   A
C590       N594 0.027       .   A
C590       H600 0.020       .   A
C591       C592 0.030       .   A
C591       H597 0.020       .   A
C591       H599 0.020       .   A
C592       N593 0.027       .   A
C592       H598 0.020       .   A
N593       N594 0.027       .   A
N593       H596 0.019       .   A
N594       H595 0.019       .   A
C549       C550 0.025       .   A
C549       C554 0.024       .   A
C550       C551 0.025       .   A
C550       H557 0.020       .   A
C551       C552 0.025       .   A
C551       H556 0.020       .   A
C552       C553 0.025       .   A
C552       C555 0.025       .   A
C553       C554 0.025       .   A
C553       O559 0.023       .   A
C554       H558 0.020       .   A
C555       C561 0.023       .   A
O559       H560 0.019       .   A
C561       N562 0.026       .   A
N562       N563 0.024       .   A
N563       C564 0.029       .   A
C564       C565 0.029       .   A
C564       N568 0.027       .   A
C564       H574 0.020       .   A
C565       C566 0.030       .   A
C565       H571 0.020       .   A
C565       H573 0.020       .   A
C566       N567 0.027       .   A
C566       H572 0.020       .   A
N567       N568 0.027       .   A
N567       H570 0.019       .   A
N568       H569 0.019       .   A
C523       C524 0.025       .   A
C523       C528 0.024       .   A
C524       C525 0.025       .   A
C524       H531 0.020       .   A
C525       C526 0.025       .   A
C525       H530 0.020       .   A
C526       C527 0.025       .   A
C526       C529 0.025       .   A
C527       C528 0.025       .   A
C527       O533 0.023       .   A
C528       H532 0.020       .   A
C529       C535 0.023       .   A
O533       H534 0.019       .   A
C535       N536 0.026       .   A
N536       N537 0.024       .   A
N537       C538 0.029       .   A
C538       C539 0.029       .   A
C538       N542 0.027       .   A
C538       H548 0.020       .   A
C539       C540 0.030       .   A
C539       H545 0.020       .   A
C539       H547 0.020       .   A
C540       N541 0.027       .   A
C540       H546 0.020       .   A
N541       N542 0.027       .   A
N541       H544 0.019       .   A
N542       H543 0.019       .   A
C497       C498 0.025       .   A
C497       C502 0.024       .   A
C498       C499 0.025       .   A
C498       H505 0.020       .   A
C499       C500 0.025       .   A
C499       H504 0.020       .   A
C500       C501 0.025       .   A
C500       C503 0.025       .   A
C501       C502 0.025       .   A
C501       O507 0.023       .   A
C502       H506 0.020       .   A
C503       C509 0.023       .   A
O507       H508 0.019       .   A
C509       N510 0.026       .   A
N510       N511 0.024       .   A
N511       C512 0.029       .   A
C512       C513 0.029       .   A
C512       N516 0.027       .   A
C512       H522 0.020       .   A
C513       C514 0.030       .   A
C513       H519 0.020       .   A
C513       H521 0.020       .   A
C514       N515 0.027       .   A
C514       H520 0.020       .   A
N515       N516 0.027       .   A
N515       H518 0.019       .   A
N516       H517 0.019       .   A
C471       C472 0.025       .   A
C471       C476 0.024       .   A
C472       C473 0.025       .   A
C472       H479 0.020       .   A
C473       C474 0.025       .   A
C473       H478 0.020       .   A
C474       C475 0.025       .   A
C474       C477 0.025       .   A
C475       C476 0.025       .   A
C475       O481 0.023       .   A
C476       H480 0.020       .   A
C477       C483 0.023       .   A
O481       H482 0.019       .   A
C483       N484 0.026       .   A
N484       N485 0.024       .   A
N485       C486 0.029       .   A
C486       C487 0.029       .   A
C486       N490 0.027       .   A
C486       H496 0.020       .   A
C487       C488 0.030       .   A
C487       H493 0.020       .   A
C487       H495 0.020       .   A
C488       N489 0.027       .   A
C488       H494 0.020       .   A
N489       N490 0.027       .   A
N489       H492 0.019       .   A
N490       H491 0.019       .   A
C445       C446 0.025       .   A
C445       C450 0.024       .   A
C446       C447 0.025       .   A
C446       H453 0.020       .   A
C447       C448 0.025       .   A
C447       H452 0.020       .   A
C448       C449 0.025       .   A
C448       C451 0.025       .   A
C449       C450 0.025       .   A
C449       O455 0.023       .   A
C450       H454 0.020       .   A
C451       C457 0.023       .   A
O455       H456 0.019       .   A
C457       N458 0.026       .   A
N458       N459 0.024       .   A
N459       C460 0.029       .   A
C460       C461 0.029       .   A
C460       N464 0.027       .   A
C460       H470 0.020       .   A
C461       C462 0.030       .   A
C461       H467 0.020       .   A
C461       H469 0.020       .   A
C462       N463 0.027       .   A
C462       H468 0.020       .   A
N463       N464 0.027       .   A
N463       H466 0.019       .   A
N464       H465 0.019       .   A
C419       C420 0.025       .   A
C419       C424 0.024       .   A
C420       C421 0.025       .   A
C420       H427 0.020       .   A
C421       C422 0.025       .   A
C421       H426 0.020       .   A
C422       C423 0.025       .   A
C422       C425 0.025       .   A
C423       C424 0.025       .   A
C423       O429 0.023       .   A
C424       H428 0.020       .   A
C425       C431 0.023       .   A
O429       H430 0.019       .   A
C431       N432 0.026       .   A
N432       N433 0.024       .   A
N433       C434 0.029       .   A
C434       C435 0.029       .   A
C434       N438 0.027       .   A
C434       H444 0.020       .   A
C435       C436 0.030       .   A
C435       H441 0.020       .   A
C435       H443 0.020       .   A
C436       N437 0.027       .   A
C436       H442 0.020       .   A
N437       N438 0.027       .   A
N437       H440 0.019       .   A
N438       H439 0.019       .   A
C393       C394 0.025       .   A
C393       C398 0.024       .   A
C394       C395 0.025       .   A
C394       H401 0.020       .   A
C395       C396 0.025       .   A
C395       H400 0.020       .   A
C396       C397 0.025       .   A
C396       C399 0.025       .   A
C397       C398 0.025       .   A
C397       O403 0.023       .   A
C398       H402 0.020       .   A
C399       C405 0.023       .   A
O403       H404 0.019       .   A
C405       N406 0.026       .   A
N406       N407 0.024       .   A
N407       C408 0.029       .   A
C408       C409 0.029       .   A
C408       N412 0.027       .   A
C408       H418 0.020       .   A
C409       C410 0.030       .   A
C409       H415 0.020       .   A
C409       H417 0.020       .   A
C410       N411 0.027       .   A
C410       H416 0.020       .   A
N411       N412 0.027       .   A
N411       H414 0.019       .   A
N412       H413 0.019       .   A
C367       C368 0.025       .   A
C367       C372 0.024       .   A
C368       C369 0.025       .   A
C368       H375 0.020       .   A
C369       C370 0.025       .   A
C369       H374 0.020       .   A
C370       C371 0.025       .   A
C370       C373 0.025       .   A
C371       C372 0.025       .   A
C371       O377 0.023       .   A
C372       H376 0.020       .   A
C373       C379 0.023       .   A
O377       H378 0.019       .   A
C379       N380 0.026       .   A
N380       N381 0.024       .   A
N381       C382 0.029       .   A
C382       C383 0.029       .   A
C382       N386 0.027       .   A
C382       H392 0.020       .   A
C383       C384 0.030       .   A
C383       H389 0.020       .   A
C383       H391 0.020       .   A
C384       N385 0.027       .   A
C384       H390 0.020       .   A
N385       N386 0.027       .   A
N385       H388 0.019       .   A
N386       H387 0.019       .   A
C341       C342 0.025       .   A
C341       C346 0.024       .   A
C342       C343 0.025       .   A
C342       H349 0.020       .   A
C343       C344 0.025       .   A
C343       H348 0.020       .   A
C344       C345 0.025       .   A
C344       C347 0.025       .   A
C345       C346 0.025       .   A
C345       O351 0.023       .   A
C346       H350 0.020       .   A
C347       C353 0.023       .   A
O351       H352 0.019       .   A
C353       N354 0.026       .   A
N354       N355 0.024       .   A
N355       C356 0.029       .   A
C356       C357 0.029       .   A
C356       N360 0.027       .   A
C356       H366 0.020       .   A
C357       C358 0.030       .   A
C357       H363 0.020       .   A
C357       H365 0.020       .   A
C358       N359 0.027       .   A
C358       H364 0.020       .   A
N359       N360 0.027       .   A
N359       H362 0.019       .   A
N360       H361 0.019       .   A
C315       C316 0.025       .   A
C315       C320 0.024       .   A
C316       C317 0.025       .   A
C316       H323 0.020       .   A
C317       C318 0.025       .   A
C317       H322 0.020       .   A
C318       C319 0.025       .   A
C318       C321 0.025       .   A
C319       C320 0.025       .   A
C319       O325 0.023       .   A
C320       H324 0.020       .   A
C321       C327 0.023       .   A
O325       H326 0.019       .   A
C327       N328 0.026       .   A
N328       N329 0.024       .   A
N329       C330 0.029       .   A
C330       C331 0.029       .   A
C330       N334 0.027       .   A
C330       H340 0.020       .   A
C331       C332 0.030       .   A
C331       H337 0.020       .   A
C331       H339 0.020       .   A
C332       N333 0.027       .   A
C332       H338 0.020       .   A
N333       N334 0.027       .   A
N333       H336 0.019       .   A
N334       H335 0.019       .   A
C289       C290 0.025       .   A
C289       C294 0.024       .   A
C290       C291 0.025       .   A
C290       H297 0.020       .   A
C291       C292 0.025       .   A
C291       H296 0.020       .   A
C292       C293 0.025       .   A
C292       C295 0.025       .   A
C293       C294 0.025       .   A
C293       O299 0.023       .   A
C294       H298 0.020       .   A
C295       C301 0.023       .   A
O299       H300 0.019       .   A
C301       N302 0.026       .   A
N302       N303 0.024       .   A
N303       C304 0.029       .   A
C304       C305 0.029       .   A
C304       N308 0.027       .   A
C304       H314 0.020       .   A
C305       C306 0.030       .   A
C305       H311 0.020       .   A
C305       H313 0.020       .   A
C306       N307 0.027       .   A
C306       H312 0.020       .   A
N307       N308 0.027       .   A
N307       H310 0.019       .   A
N308       H309 0.019       .   A
C263       C264 0.025       .   A
C263       C268 0.024       .   A
C264       C265 0.025       .   A
C264       H271 0.020       .   A
C265       C266 0.025       .   A
C265       H270 0.020       .   A
C266       C267 0.025       .   A
C266       C269 0.025       .   A
C267       C268 0.025       .   A
C267       O273 0.023       .   A
C268       H272 0.020       .   A
C269       C275 0.023       .   A
O273       H274 0.019       .   A
C275       N276 0.026       .   A
N276       N277 0.024       .   A
N277       C278 0.029       .   A
C278       C279 0.029       .   A
C278       N282 0.027       .   A
C278       H288 0.020       .   A
C279       C280 0.030       .   A
C279       H285 0.020       .   A
C279       H287 0.020       .   A
C280       N281 0.027       .   A
C280       H286 0.020       .   A
N281       N282 0.027       .   A
N281       H284 0.019       .   A
N282       H283 0.019       .   A
C237       C238 0.025       .   A
C237       C242 0.024       .   A
C238       C239 0.025       .   A
C238       H245 0.020       .   A
C239       C240 0.025       .   A
C239       H244 0.020       .   A
C240       C241 0.025       .   A
C240       C243 0.025       .   A
C241       C242 0.025       .   A
C241       O247 0.023       .   A
C242       H246 0.020       .   A
C243       C249 0.023       .   A
O247       H248 0.019       .   A
C249       N250 0.026       .   A
N250       N251 0.024       .   A
N251       C252 0.029       .   A
C252       C253 0.029       .   A
C252       N256 0.027       .   A
C252       H262 0.020       .   A
C253       C254 0.030       .   A
C253       H259 0.020       .   A
C253       H261 0.020       .   A
C254       N255 0.027       .   A
C254       H260 0.020       .   A
N255       N256 0.027       .   A
N255       H258 0.019       .   A
N256       H257 0.019       .   A
C211       C212 0.025       .   A
C211       C216 0.024       .   A
C212       C213 0.025       .   A
C212       H219 0.020       .   A
C213       C214 0.025       .   A
C213       H218 0.020       .   A
C214       C215 0.025       .   A
C214       C217 0.025       .   A
C215       C216 0.025       .   A
C215       O221 0.023       .   A
C216       H220 0.020       .   A
C217       C223 0.023       .   A
O221       H222 0.019       .   A
C223       N224 0.026       .   A
N224       N225 0.024       .   A
N225       C226 0.029       .   A
C226       C227 0.029       .   A
C226       N230 0.027       .   A
C226       H236 0.020       .   A
C227       C228 0.030       .   A
C227       H233 0.020       .   A
C227       H235 0.020       .   A
C228       N229 0.027       .   A
C228       H234 0.020       .   A
N229       N230 0.027       .   A
N229       H232 0.019       .   A
N230       H231 0.019       .   A
C185       C186 0.025       .   A
C185       C190 0.024       .   A
C186       C187 0.025       .   A
C186       H193 0.020       .   A
C187       C188 0.025       .   A
C187       H192 0.020       .   A
C188       C189 0.025       .   A
C188       C191 0.025       .   A
C189       C190 0.025       .   A
C189       O195 0.023       .   A
C190       H194 0.020       .   A
C191       C197 0.023       .   A
O195       H196 0.019       .   A
C197       N198 0.026       .   A
N198       N199 0.024       .   A
N199       C200 0.029       .   A
C200       C201 0.029       .   A
C200       N204 0.027       .   A
C200       H210 0.020       .   A
C201       C202 0.030       .   A
C201       H207 0.020       .   A
C201       H209 0.020       .   A
C202       N203 0.027       .   A
C202       H208 0.020       .   A
N203       N204 0.027       .   A
N203       H206 0.019       .   A
N204       H205 0.019       .   A
