data_pcu_v1-6c_Zn_1_Ch_1-11_fer_tobacco
_audit_creation_date              2021-04-07
_audit_creation_method            'tobacco_3.0'
_symmetry_space_group_name_H-M    'P1'
_symmetry_Int_Tables_number       1
_symmetry_cell_setting            triclinic
loop_
_symmetry_equiv_pos_as_xyz
  x,y,z
_cell_length_a                    36.75301167817189
_cell_length_b                    36.75301167817189
_cell_length_c                    36.75301167817189
_cell_angle_alpha                 90.0
_cell_angle_beta                  90.0
_cell_angle_gamma                 90.0
loop_
_atom_site_label
_atom_site_type_symbol
_atom_site_fract_x
_atom_site_fract_y
_atom_site_fract_z
_atom_site_charge
Zn1       Zn   -0.0305063435   -0.0305063435    0.0305063435          1.4972
Zn2       Zn    0.0305063435    0.0305063435    0.0305063435          1.4936
Zn3       Zn    0.0305063435   -0.0305063435   -0.0305063435          1.4911
Zn4       Zn   -0.0305063435    0.0305063435   -0.0305063435          1.4948
O5         O    0.0000000000    0.0000000000    0.0000000000         -2.2199
O6         O   -0.0224199314   -0.0224199314    0.0815334544         -1.1262
O7         O    0.0815334544    0.0224199314    0.0224199314         -1.1244
O8         O    0.0224199314   -0.0815334544   -0.0224199314         -1.1195
O9         O    0.0224199314    0.0224199314    0.0815334544         -1.1263
O10        O   -0.0224199314   -0.0815334544    0.0224199314         -1.1223
O11        O    0.0815334544   -0.0224199314   -0.0224199314         -1.1282
O12        O   -0.0224199314    0.0224199314   -0.0815334544         -1.1221
O13        O    0.0224199314    0.0815334544    0.0224199314         -1.1296
O14        O    0.0224199314   -0.0224199314   -0.0815334544         -1.1235
O15        O   -0.0224199314    0.0815334544   -0.0224199314         -1.1282
O16        O   -0.0815334544    0.0224199314   -0.0224199314         -1.1273
O17        O   -0.0815334544   -0.0224199314    0.0224199314         -1.1252
C18        C   -0.0000000000   -0.0000000000    0.0974831677          0.3927
C19        C    0.0974831677   -0.0000000000   -0.0000000000          0.3976
C20        C   -0.0000000000   -0.0974831677    0.0000000000          0.3872
C21        C    0.0000000000    0.0000000000   -0.0974831677           0.391
C22        C    0.0000000000    0.0974831677   -0.0000000000          0.4023
C23        C   -0.0974831677    0.0000000000    0.0000000000          0.3928
Zn24      Zn    0.9694936565    0.0305063435    0.4694936565          1.4972
Zn25      Zn    1.0305063435   -0.0305063435    0.4694936565          1.4936
Zn26      Zn    1.0305063435    0.0305063435    0.5305063435          1.4911
Zn27      Zn    0.9694936565   -0.0305063435    0.5305063435          1.4948
O28        O    1.0000000000    0.0000000000    0.5000000000         -2.2199
O29        O    0.9775800686    0.0224199314    0.4184665456         -1.1262
O30        O    1.0815334544   -0.0224199314    0.4775800686         -1.1244
O31        O    1.0224199314    0.0815334544    0.5224199314         -1.1195
O32        O    1.0224199314   -0.0224199314    0.4184665456         -1.1263
O33        O    0.9775800686    0.0815334544    0.4775800686         -1.1223
O34        O    1.0815334544    0.0224199314    0.5224199314         -1.1282
O35        O    0.9775800686   -0.0224199314    0.5815334544         -1.1221
O36        O    1.0224199314   -0.0815334544    0.4775800686         -1.1296
O37        O    1.0224199314    0.0224199314    0.5815334544         -1.1235
O38        O    0.9775800686   -0.0815334544    0.5224199314         -1.1282
O39        O    0.9184665456   -0.0224199314    0.5224199314         -1.1273
O40        O    0.9184665456    0.0224199314    0.4775800686         -1.1252
C41        C    1.0000000000    0.0000000000    0.4025168323          0.3927
C42        C    1.0974831677    0.0000000000    0.5000000000          0.3976
C43        C    1.0000000000    0.0974831677    0.5000000000          0.3872
C44        C    1.0000000000    0.0000000000    0.5974831677           0.391
C45        C    1.0000000000   -0.0974831677    0.5000000000          0.4023
C46        C    0.9025168323    0.0000000000    0.5000000000          0.3928
Zn47      Zn    1.0305063435    0.4694936565   -0.0305063435          1.4972
Zn48      Zn    0.9694936565    0.4694936565    0.0305063435          1.4936
Zn49      Zn    1.0305063435    0.5305063435    0.0305063435          1.4911
Zn50      Zn    0.9694936565    0.5305063435   -0.0305063435          1.4948
O51        O    1.0000000000    0.5000000000    0.0000000000         -2.2199
O52        O    1.0224199314    0.4184665456   -0.0224199314         -1.1262
O53        O    0.9775800686    0.4775800686    0.0815334544         -1.1244
O54        O    1.0815334544    0.5224199314    0.0224199314         -1.1195
O55        O    0.9775800686    0.4184665456    0.0224199314         -1.1263
O56        O    1.0815334544    0.4775800686   -0.0224199314         -1.1223
O57        O    1.0224199314    0.5224199314    0.0815334544         -1.1282
O58        O    0.9775800686    0.5815334544   -0.0224199314         -1.1221
O59        O    0.9184665456    0.4775800686    0.0224199314         -1.1296
O60        O    1.0224199314    0.5815334544    0.0224199314         -1.1235
O61        O    0.9184665456    0.5224199314   -0.0224199314         -1.1282
O62        O    0.9775800686    0.5224199314   -0.0815334544         -1.1273
O63        O    1.0224199314    0.4775800686   -0.0815334544         -1.1252
C64        C    1.0000000000    0.4025168323    0.0000000000          0.3927
C65        C    1.0000000000    0.5000000000    0.0974831677          0.3976
C66        C    1.0974831677    0.5000000000    0.0000000000          0.3872
C67        C    1.0000000000    0.5974831677    0.0000000000           0.391
C68        C    0.9025168323    0.5000000000    0.0000000000          0.4023
C69        C    1.0000000000    0.5000000000   -0.0974831677          0.3928
Zn70      Zn    0.9694936565    0.4694936565    0.5305063435          1.4972
Zn71      Zn    1.0305063435    0.4694936565    0.4694936565          1.4936
Zn72      Zn    0.9694936565    0.5305063435    0.4694936565          1.4911
Zn73      Zn    1.0305063435    0.5305063435    0.5305063435          1.4948
O74        O    1.0000000000    0.5000000000    0.5000000000         -2.2199
O75        O    0.9775800686    0.4184665456    0.5224199314         -1.1262
O76        O    1.0224199314    0.4775800686    0.4184665456         -1.1244
O77        O    0.9184665456    0.5224199314    0.4775800686         -1.1195
O78        O    1.0224199314    0.4184665456    0.4775800686         -1.1263
O79        O    0.9184665456    0.4775800686    0.5224199314         -1.1223
O80        O    0.9775800686    0.5224199314    0.4184665456         -1.1282
O81        O    1.0224199314    0.5815334544    0.5224199314         -1.1221
O82        O    1.0815334544    0.4775800686    0.4775800686         -1.1296
O83        O    0.9775800686    0.5815334544    0.4775800686         -1.1235
O84        O    1.0815334544    0.5224199314    0.5224199314         -1.1282
O85        O    1.0224199314    0.5224199314    0.5815334544         -1.1273
O86        O    0.9775800686    0.4775800686    0.5815334544         -1.1252
C87        C    1.0000000000    0.4025168323    0.5000000000          0.3927
C88        C    1.0000000000    0.5000000000    0.4025168323          0.3976
C89        C    0.9025168323    0.5000000000    0.5000000000          0.3872
C90        C    1.0000000000    0.5974831677    0.5000000000           0.391
C91        C    1.0974831677    0.5000000000    0.5000000000          0.4023
C92        C    1.0000000000    0.5000000000    0.5974831677          0.3928
Zn93      Zn    0.4694936565    0.9694936565   -0.0305063435          1.4972
Zn94      Zn    0.4694936565    1.0305063435    0.0305063435          1.4936
Zn95      Zn    0.5305063435    0.9694936565    0.0305063435          1.4911
Zn96      Zn    0.5305063435    1.0305063435   -0.0305063435          1.4948
O97        O    0.5000000000    1.0000000000    0.0000000000         -2.2199
O98        O    0.4184665456    0.9775800686   -0.0224199314         -1.1262
O99        O    0.4775800686    1.0224199314    0.0815334544         -1.1244
O100       O    0.5224199314    0.9184665456    0.0224199314         -1.1195
O101       O    0.4184665456    1.0224199314    0.0224199314         -1.1263
O102       O    0.4775800686    0.9184665456   -0.0224199314         -1.1223
O103       O    0.5224199314    0.9775800686    0.0815334544         -1.1282
O104       O    0.5815334544    1.0224199314   -0.0224199314         -1.1221
O105       O    0.4775800686    1.0815334544    0.0224199314         -1.1296
O106       O    0.5815334544    0.9775800686    0.0224199314         -1.1235
O107       O    0.5224199314    1.0815334544   -0.0224199314         -1.1282
O108       O    0.5224199314    1.0224199314   -0.0815334544         -1.1273
O109       O    0.4775800686    0.9775800686   -0.0815334544         -1.1252
C110       C    0.4025168323    1.0000000000    0.0000000000          0.3927
C111       C    0.5000000000    1.0000000000    0.0974831677          0.3976
C112       C    0.5000000000    0.9025168323    0.0000000000          0.3872
C113       C    0.5974831677    1.0000000000    0.0000000000           0.391
C114       C    0.5000000000    1.0974831677    0.0000000000          0.4023
C115       C    0.5000000000    1.0000000000   -0.0974831677          0.3928
Zn116     Zn    0.4694936565    1.0305063435    0.5305063435          1.4972
Zn117     Zn    0.4694936565    0.9694936565    0.4694936565          1.4936
Zn118     Zn    0.5305063435    1.0305063435    0.4694936565          1.4911
Zn119     Zn    0.5305063435    0.9694936565    0.5305063435          1.4948
O120       O    0.5000000000    1.0000000000    0.5000000000         -2.2199
O121       O    0.4184665456    1.0224199314    0.5224199314         -1.1262
O122       O    0.4775800686    0.9775800686    0.4184665456         -1.1244
O123       O    0.5224199314    1.0815334544    0.4775800686         -1.1195
O124       O    0.4184665456    0.9775800686    0.4775800686         -1.1263
O125       O    0.4775800686    1.0815334544    0.5224199314         -1.1223
O126       O    0.5224199314    1.0224199314    0.4184665456         -1.1282
O127       O    0.5815334544    0.9775800686    0.5224199314         -1.1221
O128       O    0.4775800686    0.9184665456    0.4775800686         -1.1296
O129       O    0.5815334544    1.0224199314    0.4775800686         -1.1235
O130       O    0.5224199314    0.9184665456    0.5224199314         -1.1282
O131       O    0.5224199314    0.9775800686    0.5815334544         -1.1273
O132       O    0.4775800686    1.0224199314    0.5815334544         -1.1252
C133       C    0.4025168323    1.0000000000    0.5000000000          0.3927
C134       C    0.5000000000    1.0000000000    0.4025168323          0.3976
C135       C    0.5000000000    1.0974831677    0.5000000000          0.3872
C136       C    0.5974831677    1.0000000000    0.5000000000           0.391
C137       C    0.5000000000    0.9025168323    0.5000000000          0.4023
C138       C    0.5000000000    1.0000000000    0.5974831677          0.3928
Zn139     Zn    0.4694936565    0.5305063435   -0.0305063435          1.4972
Zn140     Zn    0.4694936565    0.4694936565    0.0305063435          1.4936
Zn141     Zn    0.5305063435    0.4694936565   -0.0305063435          1.4911
Zn142     Zn    0.5305063435    0.5305063435    0.0305063435          1.4948
O143       O    0.5000000000    0.5000000000    0.0000000000         -2.2199
O144       O    0.4184665456    0.5224199314   -0.0224199314         -1.1262
O145       O    0.4775800686    0.4184665456    0.0224199314         -1.1244
O146       O    0.5224199314    0.4775800686   -0.0815334544         -1.1195
O147       O    0.4184665456    0.4775800686    0.0224199314         -1.1263
O148       O    0.4775800686    0.5224199314   -0.0815334544         -1.1223
O149       O    0.5224199314    0.4184665456   -0.0224199314         -1.1282
O150       O    0.5815334544    0.5224199314    0.0224199314         -1.1221
O151       O    0.4775800686    0.4775800686    0.0815334544         -1.1296
O152       O    0.5815334544    0.4775800686   -0.0224199314         -1.1235
O153       O    0.5224199314    0.5224199314    0.0815334544         -1.1282
O154       O    0.5224199314    0.5815334544    0.0224199314         -1.1273
O155       O    0.4775800686    0.5815334544   -0.0224199314         -1.1252
C156       C    0.4025168323    0.5000000000    0.0000000000          0.3927
C157       C    0.5000000000    0.4025168323    0.0000000000          0.3976
C158       C    0.5000000000    0.5000000000   -0.0974831677          0.3872
C159       C    0.5974831677    0.5000000000    0.0000000000           0.391
C160       C    0.5000000000    0.5000000000    0.0974831677          0.4023
C161       C    0.5000000000    0.5974831677    0.0000000000          0.3928
Zn162     Zn    0.4694936565    0.5305063435    0.4694936565          1.4972
Zn163     Zn    0.4694936565    0.4694936565    0.5305063435          1.4936
Zn164     Zn    0.5305063435    0.4694936565    0.4694936565          1.4911
Zn165     Zn    0.5305063435    0.5305063435    0.5305063435          1.4948
O166       O    0.5000000000    0.5000000000    0.5000000000         -2.2199
O167       O    0.4184665456    0.5224199314    0.4775800686         -1.1262
O168       O    0.4775800686    0.4184665456    0.5224199314         -1.1244
O169       O    0.5224199314    0.4775800686    0.4184665456         -1.1195
O170       O    0.4184665456    0.4775800686    0.5224199314         -1.1263
O171       O    0.4775800686    0.5224199314    0.4184665456         -1.1223
O172       O    0.5224199314    0.4184665456    0.4775800686         -1.1282
O173       O    0.5815334544    0.5224199314    0.5224199314         -1.1221
O174       O    0.4775800686    0.4775800686    0.5815334544         -1.1296
O175       O    0.5815334544    0.4775800686    0.4775800686         -1.1235
O176       O    0.5224199314    0.5224199314    0.5815334544         -1.1282
O177       O    0.5224199314    0.5815334544    0.5224199314         -1.1273
O178       O    0.4775800686    0.5815334544    0.4775800686         -1.1252
C179       C    0.4025168323    0.5000000000    0.5000000000          0.3927
C180       C    0.5000000000    0.4025168323    0.5000000000          0.3976
C181       C    0.5000000000    0.5000000000    0.4025168323          0.3872
C182       C    0.5974831677    0.5000000000    0.5000000000           0.391
C183       C    0.5000000000    0.5000000000    0.5974831677          0.4023
C184       C    0.5000000000    0.5974831677    0.5000000000          0.3928
C760       C    0.5000000000    0.5000000000   -0.1393844957         -0.3809
C761       C    0.5281717876    0.5089717878   -0.1605353087           0.612
C762       C    0.5242489694    0.5142613468   -0.1962759074          0.6095
C763       C    0.4912275224    0.5098559077   -0.2124860790          0.6149
C764       C    0.4629427494    0.5010003151   -0.1906547463         -0.3782
C765       C    0.4673019983    0.4960192694   -0.1546942818          -0.376
N766       N    0.4838820940    0.5151968618   -0.2470306979          0.6123
C767       C    0.5838908291    0.5036596289   -0.2224104004         -0.3795
H768       H    0.5548453104    0.5134837536   -0.1485248466          0.6068
H769       H    0.4443369646    0.4888379213   -0.1370651379         -0.3704
C770       C    0.4335158098    0.4968399643   -0.1973502327         -0.3737
N771       N    0.5101550451    0.5074687510   -0.2682658233         -0.3794
C772       C    0.5082110203    0.5297533655   -0.3015766920          0.6023
C773       C    0.4804751872    0.5152225239   -0.3293757040          0.6177
N774       N    0.5000000000    0.5000000000   -0.3606155043         -0.3664
N775       N    0.5193132489    0.4846912246   -0.3433395464         -0.3536
N776       N    0.5246150950    0.5094232421   -0.3167313184         -0.3781
H777       H    0.4633422094    0.5379029267   -0.3382412396          0.5975
H778       H    0.4619042911    0.4949550375   -0.3173232867         -0.3643
H779       H    0.5351430027    0.5372332112   -0.3123937814          0.5959
N780       N    0.4053792839    0.5079677330   -0.2047341895          0.6167
H781       H    0.5993059491    0.4980235999   -0.1976385864          -0.376
H782       H    0.6015362997    0.5170689124   -0.2422131581          0.6093
H783       H    0.5735408771    0.4783457414   -0.2341951655         -0.3553
O784       O    0.5539501906    0.5280768591   -0.2143972182          0.5977
C735       C    0.5000000000    0.5000000000    0.1393844957         -0.3809
C736       C    0.5281717876    0.4910282122    0.1605353087           0.612
C737       C    0.5242489694    0.4857386532    0.1962759074          0.6095
C738       C    0.4912275224    0.4901440923    0.2124860790          0.6149
C739       C    0.4629427494    0.4989996849    0.1906547463         -0.3782
C740       C    0.4673019983    0.5039807306    0.1546942818          -0.376
N741       N    0.4838820940    0.4848031382    0.2470306979          0.6123
C742       C    0.5838908291    0.4963403711    0.2224104004         -0.3795
H743       H    0.5548453104    0.4865162464    0.1485248466          0.6068
H744       H    0.4443369646    0.5111620787    0.1370651379         -0.3704
C745       C    0.4335158098    0.5031600357    0.1973502327         -0.3737
N746       N    0.5101550451    0.4925312490    0.2682658233         -0.3794
C747       C    0.5082110203    0.4702466345    0.3015766920          0.6023
C748       C    0.4804751872    0.4847774761    0.3293757040          0.6177
N749       N    0.5000000000    0.5000000000    0.3606155043         -0.3664
N750       N    0.5193132489    0.5153087754    0.3433395464         -0.3536
N751       N    0.5246150950    0.4905767579    0.3167313184         -0.3781
H752       H    0.4633422094    0.4620970733    0.3382412396          0.5975
H753       H    0.4619042911    0.5050449625    0.3173232867         -0.3643
H754       H    0.5351430027    0.4627667888    0.3123937814          0.5959
N755       N    0.4053792839    0.4920322670    0.2047341895          0.6167
H756       H    0.5993059491    0.5019764001    0.1976385864          -0.376
H757       H    0.6015362997    0.4829310876    0.2422131581          0.6093
H758       H    0.5735408771    0.5216542586    0.2341951655         -0.3553
O759       O    0.5539501906    0.4719231409    0.2143972182          0.5977
C710       C    0.5000000000    0.8606155043    0.5000000000         -0.3809
C711       C    0.5290006854    0.8394646913    0.4942464934           0.612
C712       C    0.5256962742    0.8037240926    0.4885501082          0.6095
C713       C    0.4923890286    0.7875139210    0.4892218558          0.6149
C714       C    0.4632891117    0.8093452537    0.4948472213         -0.3782
C715       C    0.4670618197    0.8453057182    0.5002860210          -0.376
N716       N    0.4856893966    0.7529693021    0.4830902947          0.6123
C717       C    0.5837715724    0.7775895996    0.5057782128         -0.3795
H718       H    0.5560120634    0.8514751534    0.4927564907          0.6068
H719       H    0.4434359293    0.8629348621    0.5048447311         -0.3704
C720       C    0.4335811712    0.8026497673    0.4956788256         -0.3737
N721       N    0.5109290801    0.7317341767    0.4937180901         -0.3794
C722       C    0.5114982468    0.6984233080    0.4713560839          0.6023
C723       C    0.4823068922    0.6706242960    0.4826824516          0.6177
N724       N    0.5000000000    0.6393844957    0.5000000000         -0.3664
N725       N    0.5174732008    0.6566604536    0.5173795121         -0.3536
N726       N    0.5255171263    0.6832686816    0.4933987380         -0.3781
H727       H    0.4678274765    0.6617587604    0.4582225636          0.5975
H728       H    0.4615787769    0.6826767133    0.5007377673         -0.3643
H729       H    0.5390995247    0.6876062186    0.4669459561          0.5959
N730       N    0.4068712153    0.7952658105    0.4814637075          0.6167
H731       H    0.5984568024    0.8023614136    0.5131086130          -0.376
H732       H    0.6028104404    0.7577868419    0.4944339181          0.6093
H733       H    0.5706461305    0.7658048345    0.5297706529         -0.3553
O734       O    0.5567603227    0.7856027818    0.4781551183          0.5977
C685       C    0.5000000000    1.1393844957    0.5000000000         -0.3809
C686       C    0.4718282124    1.1605353087    0.4910282122           0.612
C687       C    0.4757510306    1.1962759074    0.4857386532          0.6095
C688       C    0.5087724776    1.2124860790    0.4901440923          0.6149
C689       C    0.5370572506    1.1906547463    0.4989996849         -0.3782
C690       C    0.5326980017    1.1546942818    0.5039807306          -0.376
N691       N    0.5161179060    1.2470306979    0.4848031382          0.6123
C692       C    0.4161091709    1.2224104004    0.4963403711         -0.3795
H693       H    0.4451546896    1.1485248466    0.4865162464          0.6068
H694       H    0.5556630354    1.1370651379    0.5111620787         -0.3704
C695       C    0.5664841902    1.1973502327    0.5031600357         -0.3737
N696       N    0.4898449549    1.2682658233    0.4925312490         -0.3794
C697       C    0.4917889797    1.3015766920    0.4702466345          0.6023
C698       C    0.5195248128    1.3293757040    0.4847774761          0.6177
N699       N    0.5000000000    1.3606155043    0.5000000000         -0.3664
N700       N    0.4806867511    1.3433395464    0.5153087754         -0.3536
N701       N    0.4753849050    1.3167313184    0.4905767579         -0.3781
H702       H    0.5366577906    1.3382412396    0.4620970733          0.5975
H703       H    0.5380957089    1.3173232867    0.5050449625         -0.3643
H704       H    0.4648569973    1.3123937814    0.4627667888          0.5959
N705       N    0.5946207161    1.2047341895    0.4920322670          0.6167
H706       H    0.4006940509    1.1976385864    0.5019764001          -0.376
H707       H    0.3984637003    1.2422131581    0.4829310876          0.6093
H708       H    0.4264591229    1.2341951655    0.5216542586         -0.3553
O709       O    0.4460498094    1.2143972182    0.4719231409          0.5977
C660       C    0.5000000000    0.8606155043    0.0000000000         -0.3809
C661       C    0.4884646846    0.8394646913    0.0272227678           0.612
C662       C    0.4950335269    0.8037240926    0.0276899381          0.6095
C663       C    0.5131923341    0.7875139210   -0.0002400024          0.6149
C664       C    0.5248894063    0.8093452537   -0.0274728576         -0.3782
C665       C    0.5182705205    0.8453057182   -0.0274079115          -0.376
N666       N    0.5220288516    0.7529693021   -0.0023369208          0.6123
C667       C    0.4481510223    0.7775895996    0.0660510984         -0.3795
H668       H    0.4745202438    0.8514751534    0.0504043818          0.6068
H669       H    0.5277742382    0.8629348621   -0.0495132023         -0.3704
C670       C    0.5408936187    0.8026497673   -0.0525151913         -0.3737
N671       N    0.4990557658    0.7317341767    0.0125704258         -0.3794
C672       C    0.5172343200    0.6984233080    0.0256058944          0.6023
C673       C    0.5242667716    0.6706242960   -0.0049058479          0.6177
N674       N    0.5000000000    0.6393844957    0.0000000000         -0.3664
N675       N    0.4758055308    0.6566604536    0.0046891200         -0.3536
N676       N    0.4911232899    0.6832686816    0.0248174216         -0.3781
H677       H    0.5526361555    0.6617587604   -0.0031401589          0.5975
H678       H    0.5209776077    0.6826767133   -0.0321974325         -0.3643
H679       H    0.5053740228    0.6876062186    0.0509162305          0.5959
N680       N    0.5676603272    0.7952658105   -0.0666231552          0.6167
H681       H    0.4338358942    0.8023614136    0.0740802860          -0.376
H682       H    0.4468378236    0.7577868419    0.0881745481          0.6093
H683       H    0.4356787873    0.7658048345    0.0417126974         -0.3553
O684       O    0.4861783997    0.7856027818    0.0592274974          0.5977
C635       C    0.5000000000    1.1393844957    0.0000000000         -0.3809
C636       C    0.4736547923    1.1605353087    0.0134191141           0.612
C637       C    0.4727273402    1.1962759074    0.0068993158          0.6095
C638       C    0.4993126989    1.2124860790   -0.0131766041          0.6149
C639       C    0.5256566063    1.1906547463   -0.0267577840         -0.3782
C640       C    0.5260567718    1.1546942818   -0.0201506867          -0.376
N641       N    0.5007837060    1.2470306979   -0.0221385931          0.6123
C642       C    0.4377542591    1.2224104004    0.0563607295         -0.3795
H643       H    0.4515099874    1.1485248466    0.0289575267          0.6068
H644       H    0.5474398561    1.1370651379   -0.0311837387         -0.3704
C645       C    0.5495128434    1.1973502327   -0.0444815884         -0.3737
N646       N    0.4875269559    1.2682658233    0.0018249256         -0.3794
C647       C    0.4732467157    1.3015766920   -0.0153930305          0.6023
C648       C    0.5031890818    1.3293757040   -0.0245514420          0.6177
N649       N    0.5000000000    1.3606155043    0.0000000000         -0.3664
N650       N    0.4970220317    1.3433395464    0.0244640939         -0.3536
N651       N    0.4758674399    1.3167313184    0.0105981101         -0.3781
H652       H    0.4994349148    1.3382412396   -0.0527267118          0.5975
H653       H    0.5306442988    1.3173232867   -0.0231875320         -0.3643
H654       H    0.4488320440    1.3123937814   -0.0017840784          0.5959
N655       N    0.5617056982    1.2047341895   -0.0721732048          0.6167
H656       H    0.4307504886    1.1976385864    0.0712045143          -0.376
H657       H    0.4157777084    1.2422131581    0.0592247712          0.6093
H658       H    0.4629086631    1.2341951655    0.0670924753         -0.3553
O659       O    0.4418897271    1.2143972182    0.0179479600          0.5977
C610       C    0.5000000000    1.0000000000   -0.3606155043         -0.3809
C611       C    0.5089717878    1.0281717876   -0.3394646913           0.612
C612       C    0.5142613468    1.0242489694   -0.3037240926          0.6095
C613       C    0.5098559077    0.9912275224   -0.2875139210          0.6149
C614       C    0.5010003151    0.9629427494   -0.3093452537         -0.3782
C615       C    0.4960192694    0.9673019983   -0.3453057182          -0.376
N616       N    0.5151968618    0.9838820940   -0.2529693021          0.6123
C617       C    0.5036596289    1.0838908291   -0.2775895996         -0.3795
H618       H    0.5134837536    1.0548453104   -0.3514751534          0.6068
H619       H    0.4888379213    0.9443369646   -0.3629348621         -0.3704
C620       C    0.4968399643    0.9335158098   -0.3026497673         -0.3737
N621       N    0.5074687510    1.0101550451   -0.2317341767         -0.3794
C622       C    0.5297533655    1.0082110203   -0.1984233080          0.6023
C623       C    0.5152225239    0.9804751872   -0.1706242960          0.6177
N624       N    0.5000000000    1.0000000000   -0.1393844957         -0.3664
N625       N    0.4846912246    1.0193132489   -0.1566604536         -0.3536
N626       N    0.5094232421    1.0246150950   -0.1832686816         -0.3781
H627       H    0.5379029267    0.9633422094   -0.1617587604          0.5975
H628       H    0.4949550375    0.9619042911   -0.1826767133         -0.3643
H629       H    0.5372332112    1.0351430027   -0.1876062186          0.5959
N630       N    0.5079677330    0.9053792839   -0.2952658105          0.6167
H631       H    0.4980235999    1.0993059491   -0.3023614136          -0.376
H632       H    0.5170689124    1.1015362997   -0.2577868419          0.6093
H633       H    0.4783457414    1.0735408771   -0.2658048345         -0.3553
O634       O    0.5280768591    1.0539501906   -0.2856027818          0.5977
C585       C    0.5000000000    1.0000000000    0.3606155043         -0.3809
C586       C    0.4718282124    0.9910282122    0.3394646913           0.612
C587       C    0.4757510306    0.9857386532    0.3037240926          0.6095
C588       C    0.5087724776    0.9901440923    0.2875139210          0.6149
C589       C    0.5370572506    0.9989996849    0.3093452537         -0.3782
C590       C    0.5326980017    1.0039807306    0.3453057182          -0.376
N591       N    0.5161179060    0.9848031382    0.2529693021          0.6123
C592       C    0.4161091709    0.9963403711    0.2775895996         -0.3795
H593       H    0.4451546896    0.9865162464    0.3514751534          0.6068
H594       H    0.5556630354    1.0111620787    0.3629348621         -0.3704
C595       C    0.5664841902    1.0031600357    0.3026497673         -0.3737
N596       N    0.4898449549    0.9925312490    0.2317341767         -0.3794
C597       C    0.4917889797    0.9702466345    0.1984233080          0.6023
C598       C    0.5195248128    0.9847774761    0.1706242960          0.6177
N599       N    0.5000000000    1.0000000000    0.1393844957         -0.3664
N600       N    0.4806867511    1.0153087754    0.1566604536         -0.3536
N601       N    0.4753849050    0.9905767579    0.1832686816         -0.3781
H602       H    0.5366577906    0.9620970733    0.1617587604          0.5975
H603       H    0.5380957089    1.0050449625    0.1826767133         -0.3643
H604       H    0.4648569973    0.9627667888    0.1876062186          0.5959
N605       N    0.5946207161    0.9920322670    0.2952658105          0.6167
H606       H    0.4006940509    1.0019764001    0.3023614136          -0.376
H607       H    0.3984637003    0.9829310876    0.2577868419          0.6093
H608       H    0.4264591229    1.0216542586    0.2658048345         -0.3553
O609       O    0.4460498094    0.9719231409    0.2856027818          0.5977
C560       C    0.8606155043    0.5000000000    0.5000000000         -0.3809
C561       C    0.8394646913    0.4728284144    0.5116553648           0.612
C562       C    0.8037240926    0.4723322537    0.5050886486          0.6095
C563       C    0.7875139210    0.5001817689    0.4868067351          0.6149
C564       C    0.8093452537    0.5273627277    0.4749895705         -0.3782
C565       C    0.8453057182    0.5273269981    0.4816086785          -0.376
N566       N    0.7529693021    0.5022396624    0.4779610478          0.6123
C567       C    0.7775895996    0.4341784073    0.5521400232         -0.3795
H568       H    0.8514751534    0.4497085773    0.5257019937          0.6068
H569       H    0.8629348621    0.5493901240    0.4720074803         -0.3704
C570       C    0.8026497673    0.5523341746    0.4588749768         -0.3737
N571       N    0.7317341767    0.4874338645    0.5009997111         -0.3794
C572       C    0.6984233080    0.4743182825    0.4828788727          0.6023
C573       C    0.6706242960    0.5047986862    0.4757118103          0.6177
N574       N    0.6393844957    0.5000000000    0.5000000000         -0.3664
N575       N    0.6566604536    0.4954177204    0.5242149314         -0.3536
N576       N    0.6832686816    0.4752220021    0.5089861682         -0.3781
H577       H    0.6617587604    0.5029077915    0.4473504966          0.5975
H578       H    0.6826767133    0.5321045234    0.4788804767         -0.3643
H579       H    0.6876062186    0.4490605445    0.4948507746          0.5959
N580       N    0.7952658105    0.5663238524    0.4320462563          0.6167
H581       H    0.8023614136    0.4262124851    0.5664904528          -0.376
H582       H    0.7577868419    0.4120609696    0.5535508623          0.6093
H583       H    0.7658048345    0.4585716238    0.5645047065         -0.3553
O584       O    0.7856027818    0.4408340883    0.5140828968          0.5977
C535       C    1.1393844957    0.5000000000    0.5000000000         -0.3809
C536       C    1.1605353087    0.5116553648    0.4728284144           0.612
C537       C    1.1962759074    0.5050886486    0.4723322537          0.6095
C538       C    1.2124860790    0.4868067351    0.5001817689          0.6149
C539       C    1.1906547463    0.4749895705    0.5273627277         -0.3782
C540       C    1.1546942818    0.4816086785    0.5273269981          -0.376
N541       N    1.2470306979    0.4779610478    0.5022396624          0.6123
C542       C    1.2224104004    0.5521400232    0.4341784073         -0.3795
H543       H    1.1485248466    0.5257019937    0.4497085773          0.6068
H544       H    1.1370651379    0.4720074803    0.5493901240         -0.3704
C545       C    1.1973502327    0.4588749768    0.5523341746         -0.3737
N546       N    1.2682658233    0.5009997111    0.4874338645         -0.3794
C547       C    1.3015766920    0.4828788727    0.4743182825          0.6023
C548       C    1.3293757040    0.4757118103    0.5047986862          0.6177
N549       N    1.3606155043    0.5000000000    0.5000000000         -0.3664
N550       N    1.3433395464    0.5242149314    0.4954177204         -0.3536
N551       N    1.3167313184    0.5089861682    0.4752220021         -0.3781
H552       H    1.3382412396    0.4473504966    0.5029077915          0.5975
H553       H    1.3173232867    0.4788804767    0.5321045234         -0.3643
H554       H    1.3123937814    0.4948507746    0.4490605445          0.5959
N555       N    1.2047341895    0.4320462563    0.5663238524          0.6167
H556       H    1.1976385864    0.5664904528    0.4262124851          -0.376
H557       H    1.2422131581    0.5535508623    0.4120609696          0.6093
H558       H    1.2341951655    0.5645047065    0.4585716238         -0.3553
O559       O    1.2143972182    0.5140828968    0.4408340883          0.5977
C510       C    0.6393844957    0.5000000000    0.0000000000         -0.3809
C511       C    0.6605353087    0.5128319144    0.0266361515           0.612
C512       C    0.6962759074    0.5175194146    0.0220106484          0.6095
C513       C    0.7124860790    0.5085290189   -0.0100673291          0.6149
C514       C    0.6906547463    0.4957963161   -0.0368316371         -0.3782
C515       C    0.6546942818    0.4914754558   -0.0318172544          -0.376
N516       N    0.7470306979    0.5127876772   -0.0180888588          0.6123
C517       C    0.7224104004    0.5153820473    0.0825497227         -0.3795
H518       H    0.6485248466    0.5210380292    0.0524139390          0.6068
H519       H    0.6370651379    0.4811461102   -0.0535490089         -0.3704
C520       C    0.6973502327    0.4875524129   -0.0653849443         -0.3737
N521       N    0.7682658233    0.5088184013    0.0090079400         -0.3794
C522       C    0.8015766920    0.5306105421    0.0039595865          0.6023
C523       C    0.8293757040    0.5123355574   -0.0214657302          0.6177
N524       N    0.8606155043    0.5000000000    0.0000000000         -0.3664
N525       N    0.8433395464    0.4875493887    0.0212683442         -0.3536
N526       N    0.8167313184    0.5127803887    0.0230512919         -0.3781
H527       H    0.8382412396    0.5323906221   -0.0416085696          0.5975
H528       H    0.8173232867    0.4896651611   -0.0370125086         -0.3643
H529       H    0.8123937814    0.5417914654    0.0295772898          0.5959
N530       N    0.7047341895    0.4946265784   -0.0948034336          0.6167
H531       H    0.6976385864    0.5119623142    0.0986026405          -0.376
H532       H    0.7422131581    0.5311322316    0.0981414901          0.6093
H533       H    0.7341951655    0.4888673545    0.0758500608         -0.3553
O534       O    0.7143972182    0.5353616099    0.0494822153          0.5977
C485       C    1.1393844957    0.5000000000    0.0000000000         -0.3809
C486       C    1.1605353087    0.5167697294   -0.0243499233           0.612
C487       C    1.1962759074    0.5104287086   -0.0261273911          0.6095
C488       C    1.2124860790    0.4870284720   -0.0024155210          0.6149
C489       C    1.1906547463    0.4700982577    0.0219117835         -0.3782
C490       C    1.1546942818    0.4765952153    0.0231780411          -0.376
N491       N    1.2470306979    0.4779508385   -0.0021368145          0.6123
C492       C    1.2224104004    0.5640627483   -0.0542865395         -0.3795
H493       H    1.1485248466    0.5350874992   -0.0442570569          0.6068
H494       H    1.1370651379    0.4628438671    0.0429230393         -0.3704
C495       C    1.1973502327    0.4493888613    0.0432278384         -0.3737
N496       N    1.2682658233    0.5034506527   -0.0121243630         -0.3794
C497       C    1.3015766920    0.4882619204   -0.0285464726          0.6023
C498       C    1.3293757040    0.4752424020   -0.0000699220          0.6177
N499       N    1.3606155043    0.5000000000    0.0000000000         -0.3664
N500       N    1.3433395464    0.5246432247    0.0002677031         -0.3536
N501       N    1.3167313184    0.5136820536   -0.0225278007         -0.3781
H502       H    1.3382412396    0.4478063132   -0.0074996348          0.5975
H503       H    1.3173232867    0.4729810133    0.0273259775         -0.3643
H504       H    1.3123937814    0.5049657549   -0.0509576680          0.5959
N505       N    1.2047341895    0.4203334003    0.0516700839          0.6167
H506       H    1.1976385864    0.5796991915   -0.0592757670          -0.376
H507       H    1.2422131581    0.5697942531   -0.0756949810          0.6093
H508       H    1.2341951655    0.5713905220   -0.0279385199         -0.3553
O509       O    1.2143972182    0.5254398423   -0.0552426240          0.5977
C460       C    1.0000000000    0.5000000000   -0.1393844957         -0.3809
C461       C    1.0281717876    0.5089717878   -0.1605353087           0.612
C462       C    1.0242489694    0.5142613468   -0.1962759074          0.6095
C463       C    0.9912275224    0.5098559077   -0.2124860790          0.6149
C464       C    0.9629427494    0.5010003151   -0.1906547463         -0.3782
C465       C    0.9673019983    0.4960192694   -0.1546942818          -0.376
N466       N    0.9838820940    0.5151968618   -0.2470306979          0.6123
C467       C    1.0838908291    0.5036596289   -0.2224104004         -0.3795
H468       H    1.0548453104    0.5134837536   -0.1485248466          0.6068
H469       H    0.9443369646    0.4888379213   -0.1370651379         -0.3704
C470       C    0.9335158098    0.4968399643   -0.1973502327         -0.3737
N471       N    1.0101550451    0.5074687510   -0.2682658233         -0.3794
C472       C    1.0082110203    0.5297533655   -0.3015766920          0.6023
C473       C    0.9804751872    0.5152225239   -0.3293757040          0.6177
N474       N    1.0000000000    0.5000000000   -0.3606155043         -0.3664
N475       N    1.0193132489    0.4846912246   -0.3433395464         -0.3536
N476       N    1.0246150950    0.5094232421   -0.3167313184         -0.3781
H477       H    0.9633422094    0.5379029267   -0.3382412396          0.5975
H478       H    0.9619042911    0.4949550375   -0.3173232867         -0.3643
H479       H    1.0351430027    0.5372332112   -0.3123937814          0.5959
N480       N    0.9053792839    0.5079677330   -0.2047341895          0.6167
H481       H    1.0993059491    0.4980235999   -0.1976385864          -0.376
H482       H    1.1015362997    0.5170689124   -0.2422131581          0.6093
H483       H    1.0735408771    0.4783457414   -0.2341951655         -0.3553
O484       O    1.0539501906    0.5280768591   -0.2143972182          0.5977
C435       C    1.0000000000    0.5000000000    0.1393844957         -0.3809
C436       C    1.0280964649    0.4907950422    0.1605353087           0.612
C437       C    1.0241299434    0.4855381758    0.1962759074          0.6095
C438       C    0.9911461412    0.4902171341    0.2124860790          0.6149
C439       C    0.9629357318    0.4993068372    0.1906547463         -0.3782
C440       C    0.9673361122    0.5042515838    0.1546942818          -0.376
N441       N    0.9837567012    0.4849372399    0.2470306979          0.6123
C442       C    1.0838576183    0.4956452382    0.2224104004         -0.3795
H443       H    1.0547316780    0.4860621703    0.1485248466          0.6068
H444       H    0.9444313837    0.5116230116    0.1370651379         -0.3704
C445       C    0.9335442824    0.5037109255    0.1973502327         -0.3737
N446       N    1.0100927979    0.4924473439    0.2682658233         -0.3794
C447       C    1.0079641525    0.4701796062    0.3015766920          0.6023
C448       C    0.9803496987    0.4849398139    0.3293757040          0.6177
N449       N    1.0000000000    0.5000000000    0.3606155043         -0.3664
N450       N    1.0194394595    0.5151481880    0.3433395464         -0.3536
N451       N    1.0245361531    0.4903730800    0.3167313184         -0.3781
H452       H    0.9630293418    0.4624021823    0.3382412396          0.5975
H453       H    0.9619474103    0.5053605135    0.3173232867         -0.3643
H454       H    1.0348332196    0.4624768143    0.3123937814          0.5959
N455       N    0.9053164996    0.4928167249    0.2047341895          0.6167
H456       H    1.0993189183    0.5011533184    0.1976385864          -0.376
H457       H    1.1013913513    0.4820901756    0.2422131581          0.6093
H458       H    1.0737178146    0.5210440332    0.2341951655         -0.3553
O459       O    1.0537156464    0.4714769844    0.2143972182          0.5977
C410       C    1.0000000000   -0.1393844957    0.5000000000         -0.3809
C411       C    1.0281717876   -0.1605353087    0.4910282122           0.612
C412       C    1.0242489694   -0.1962759074    0.4857386532          0.6095
C413       C    0.9912275224   -0.2124860790    0.4901440923          0.6149
C414       C    0.9629427494   -0.1906547463    0.4989996849         -0.3782
C415       C    0.9673019983   -0.1546942818    0.5039807306          -0.376
N416       N    0.9838820940   -0.2470306979    0.4848031382          0.6123
C417       C    1.0838908291   -0.2224104004    0.4963403711         -0.3795
H418       H    1.0548453104   -0.1485248466    0.4865162464          0.6068
H419       H    0.9443369646   -0.1370651379    0.5111620787         -0.3704
C420       C    0.9335158098   -0.1973502327    0.5031600357         -0.3737
N421       N    1.0101550451   -0.2682658233    0.4925312490         -0.3794
C422       C    1.0082110203   -0.3015766920    0.4702466345          0.6023
C423       C    0.9804751872   -0.3293757040    0.4847774761          0.6177
N424       N    1.0000000000   -0.3606155043    0.5000000000         -0.3664
N425       N    1.0193132489   -0.3433395464    0.5153087754         -0.3536
N426       N    1.0246150950   -0.3167313184    0.4905767579         -0.3781
H427       H    0.9633422094   -0.3382412396    0.4620970733          0.5975
H428       H    0.9619042911   -0.3173232867    0.5050449625         -0.3643
H429       H    1.0351430027   -0.3123937814    0.4627667888          0.5959
N430       N    0.9053792839   -0.2047341895    0.4920322670          0.6167
H431       H    1.0993059491   -0.1976385864    0.5019764001          -0.376
H432       H    1.1015362997   -0.2422131581    0.4829310876          0.6093
H433       H    1.0735408771   -0.2341951655    0.5216542586         -0.3553
O434       O    1.0539501906   -0.2143972182    0.4719231409          0.5977
C385       C    1.0000000000    0.1393844957    0.5000000000         -0.3809
C386       C    0.9927188410    0.1605353087    0.5286553191           0.612
C387       C    0.9872054327    0.1962759074    0.5250538935          0.6095
C388       C    0.9896400158    0.2124860790    0.4918289531          0.6149
C389       C    0.9967984684    0.1906547463    0.4630677560         -0.3782
C390       C    1.0020298539    0.1546942818    0.4671231810          -0.376
N391       N    0.9838718355    0.2470306979    0.4848140259          0.6123
C392       C    1.0013339998    0.2224104004    0.5839600175         -0.3795
H393       H    0.9898005472    0.1485248466    0.5555498951          0.6068
H394       H    1.0078332718    0.1370651379    0.4437718454         -0.3704
C395       C    0.9992020834    0.1973502327    0.4334455359         -0.3737
N396       N    0.9931481571    0.2682658233    0.5105810884         -0.3794
C397       C    0.9707873867    0.3015766920    0.5099652814          0.6023
C398       C    0.9836436844    0.3293757040    0.4814146701          0.6177
N399       N    1.0000000000    0.3606155043    0.5000000000         -0.3664
N400       N    1.0164298375    0.3433395464    0.5183690127         -0.3536
N401       N    0.9920567462    0.3167313184    0.5251317551         -0.3781
H402       H    0.9599848701    0.3382412396    0.4656603022          0.5975
H403       H    1.0027713198    0.3173232867    0.4616717536         -0.3643
H404       H    0.9649218269    0.3123937814    0.5372942948          0.5959
N405       N    0.9864213303    0.2047341895    0.4060202979          0.6167
H406       H    1.0078764616    0.1976385864    0.5990128226          -0.376
H407       H    0.9889974230    0.2422131581    0.6023714375          0.6093
H408       H    1.0259878313    0.2341951655    0.5721235062         -0.3553
O409       O    0.9751800380    0.2143972182    0.5555238919          0.5977
C360       C    0.8606155043   -0.0000000000    0.5000000000         -0.3809
C361       C    0.8394646913   -0.0064713489    0.4711510098           0.612
C362       C    0.8037240926    0.0000749051    0.4718682933          0.6095
C363       C    0.7875139210    0.0129358742    0.5025996996          0.6149
C364       C    0.8093452537    0.0195645553    0.5314875948         -0.3782
C365       C    0.8453057182    0.0130644032    0.5302378389          -0.376
N366       N    0.7529693021    0.0212537207    0.5062458672          0.6123
C367       C    0.7775895996   -0.0391761033    0.4257282219         -0.3795
H368       H    0.8514751534   -0.0160368680    0.4458461586          0.6068
H369       H    0.8629348621    0.0184538904    0.5536881685         -0.3704
C370       C    0.8026497673    0.0308231452    0.5589920935         -0.3737
N371       N    0.7317341767    0.0013232016    0.4874637996         -0.3794
C372       C    0.6984233080    0.0215430915    0.4778961808          0.6023
C373       C    0.6706242960    0.0229951726    0.5091741803          0.6177
N374       N    0.6393844957   -0.0000000000    0.5000000000         -0.3664
N375       N    0.6566604536   -0.0229628698    0.4910519947         -0.3536
N376       N    0.6832686816   -0.0042867110    0.4739937603         -0.3781
H377       H    0.6617587604    0.0512218684    0.5125198105          0.5975
H378       H    0.6826767133    0.0148695822    0.5354348728         -0.3643
H379       H    0.6876062186    0.0144093818    0.4508704532          0.5959
N380       N    0.7952658105    0.0546291236    0.5776673904          0.6167
H381       H    0.8023614136   -0.0518210688    0.4152642076          -0.376
H382       H    0.7577868419   -0.0365043458    0.4037274667          0.6093
H383       H    0.7658048345   -0.0558070751    0.4474382468         -0.3553
O384       O    0.7856027818   -0.0029865709    0.4392545189          0.5977
C335       C    1.1393844957   -0.0000000000    0.5000000000         -0.3809
C336       C    1.1605353087    0.0069294000    0.5287424078           0.612
C337       C    1.1962759074    0.0124865348    0.5252088274          0.6095
C338       C    1.2124860790    0.0104593539    0.4919565434          0.6149
C339       C    1.1906547463    0.0036539489    0.4631097695         -0.3782
C340       C    1.1546942818   -0.0016267488    0.4671007717          -0.376
N341       N    1.2470306979    0.0163130790    0.4850128404          0.6123
C342       C    1.2224104004   -0.0023629503    0.5839373609         -0.3795
H343       H    1.1485248466    0.0095178428    0.5556707315          0.6068
H344       H    1.1370651379   -0.0071435265    0.4436800609         -0.3704
C345       C    1.1973502327    0.0016135773    0.4334603146         -0.3737
N346       N    1.2682658233    0.0067216418    0.5106642728         -0.3794
C347       C    1.3015766920    0.0290882802    0.5103225754          0.6023
C348       C    1.3293757040    0.0165828770    0.4816165363          0.6177
N349       N    1.3606155043   -0.0000000000    0.5000000000         -0.3664
N350       N    1.3433395464   -0.0166537421    0.5181662616         -0.3536
N351       N    1.3167313184    0.0076346313    0.5252272234         -0.3781
H352       H    1.3382412396    0.0404330066    0.4661533245          0.5975
H353       H    1.3173232867   -0.0023013438    0.4616406660         -0.3643
H354       H    1.3123937814    0.0346184431    0.5377214270          0.5959
N355       N    1.2047341895    0.0147295061    0.4061937831          0.6167
H356       H    1.1976385864   -0.0090894145    0.5989088481          -0.376
H357       H    1.2422131581    0.0097470414    0.6024986005          0.6093
H358       H    1.2341951655   -0.0268698565    0.5717995706         -0.3553
O359       O    1.2143972182    0.0241375726    0.5558239256          0.5977
C310       C   -0.0000000000   -0.3606155043    0.0000000000         -0.3809
C311       C   -0.0233513836   -0.3394646913   -0.0181343728           0.612
C312       C   -0.0178454212   -0.3037240926   -0.0217471716          0.6095
C313       C    0.0116326026   -0.2875139210   -0.0062271853          0.6149
C314       C    0.0351301043   -0.3093452537    0.0118370697         -0.3782
C315       C    0.0293208340   -0.3453057182    0.0150098043          -0.376
N316       N    0.0203690504   -0.2529693021   -0.0087082309          0.6123
C317       C   -0.0774856784   -0.2775895996   -0.0323579005         -0.3795
H318       H   -0.0468339545   -0.3514751534   -0.0315658103          0.6068
H319       H    0.0484019769   -0.3629348621    0.0296684030         -0.3704
C320       C    0.0613185018   -0.3026497673    0.0258877327         -0.3737
N321       N   -0.0069574621   -0.2317341767   -0.0105119411         -0.3794
C322       C    0.0025503344   -0.1984233080   -0.0307600293          0.6023
C323       C    0.0235759235   -0.1706242960   -0.0075577364          0.6177
N324       N   -0.0000000000   -0.1393844957    0.0000000000         -0.3664
N325       N   -0.0234070673   -0.1566604536    0.0077116396         -0.3536
N326       N   -0.0198571099   -0.1832686816   -0.0173319238         -0.3781
H327       H    0.0474778759   -0.1617587604   -0.0229407228          0.5975
H328       H    0.0340206917   -0.1826767133    0.0178697292         -0.3643
H329       H   -0.0201516276   -0.1876062186   -0.0470664908          0.5959
N330       N    0.0915664154   -0.2952658105    0.0251427175          0.6167
H331       H   -0.0938987880   -0.3023614136   -0.0323820211          -0.376
H332       H   -0.0894262304   -0.2577868419   -0.0510285924          0.6093
H333       H   -0.0764976434   -0.2658048345   -0.0050277305         -0.3553
O334       O   -0.0409625191   -0.2856027818   -0.0449555905          0.5977
C285       C    0.0000000000    0.1393844957    0.0000000000         -0.3809
C286       C   -0.0287865466    0.1605353087    0.0067436878           0.612
C287       C   -0.0281311583    0.1962759074    0.0001909477          0.6095
C288       C    0.0024773373    0.2124860790   -0.0129598642          0.6149
C289       C    0.0313013003    0.1906547463   -0.0198612449         -0.3782
C290       C    0.0301130278    0.1546942818   -0.0133495726          -0.376
N291       N    0.0060447370    0.2470306979   -0.0213117961          0.6123
C292       C   -0.0738982407    0.2224104004    0.0398762350         -0.3795
H293       H   -0.0539998721    0.1485248466    0.0165479150          0.6068
H294       H    0.0535113787    0.1370651379   -0.0189604288         -0.3704
C295       C    0.0586981752    0.1973502327   -0.0313792542         -0.3737
N296       N   -0.0125481451    0.2682658233   -0.0012046733         -0.3794
C297       C   -0.0223064180    0.3015766920   -0.0213332446          0.6023
C298       C    0.0089564623    0.3293757040   -0.0230808434          0.6177
N299       N   -0.0000000000    0.3606155043    0.0000000000         -0.3664
N300       N   -0.0087306027    0.3433395464    0.0230464046         -0.3536
N301       N   -0.0259645683    0.3167313184    0.0045322830         -0.3781
H302       H    0.0120351960    0.3382412396   -0.0513378956          0.5975
H303       H    0.0352927704    0.3173232867   -0.0152037838         -0.3643
H304       H   -0.0492635241    0.3123937814   -0.0139444557          0.5959
N305       N    0.0771476677    0.2047341895   -0.0553606544          0.6167
H306       H   -0.0842422906    0.1976385864    0.0526195225          -0.376
H307       H   -0.0959232620    0.2422131581    0.0374125077          0.6093
H308       H   -0.0520320196    0.2341951655    0.0563013007         -0.3553
O309       O   -0.0607145450    0.2143972182    0.0035604928          0.5977
C260       C   -0.3606155043   -0.0000000000    0.0000000000         -0.3809
C261       C   -0.3394646913   -0.0213650900    0.0204371113           0.612
C262       C   -0.3037240926   -0.0155171444    0.0234652245          0.6095
C263       C   -0.2875139210    0.0122107284    0.0049993390          0.6149
C264       C   -0.3093452537    0.0337283662   -0.0153830348         -0.3782
C265       C   -0.3453057182    0.0276239207   -0.0179422557          -0.376
N266       N   -0.2529693021    0.0211558169    0.0065698487          0.6123
C267       C   -0.2775895996   -0.0737519816    0.0401460995         -0.3795
H268       H   -0.3514751534   -0.0433437611    0.0362096404          0.6068
H269       H   -0.3629348621    0.0450983916   -0.0344833378         -0.3704
C270       C   -0.3026497673    0.0583349436   -0.0320494575         -0.3737
N271       N   -0.2317341767   -0.0058408676    0.0111710093         -0.3794
C272       C   -0.1984233080    0.0056965279    0.0303353454          0.6023
C273       C   -0.1706242960    0.0242275471    0.0050960285          0.6177
N274       N   -0.1393844957   -0.0000000000    0.0000000000         -0.3664
N275       N   -0.1566604536   -0.0240753932   -0.0052664626         -0.3536
N276       N   -0.1832686816   -0.0179717281    0.0192799737         -0.3781
H277       H   -0.1617587604    0.0495832118    0.0179424237          0.5975
H278       H   -0.1826767133    0.0320051446   -0.0212698238         -0.3643
H279       H   -0.1876062186   -0.0152103397    0.0488875057          0.5959
N280       N   -0.2952658105    0.0884993820   -0.0344154626          0.6167
H281       H   -0.3023614136   -0.0900757924    0.0418560545          -0.376
H282       H   -0.2577868419   -0.0837115093    0.0599445672          0.6093
H283       H   -0.2658048345   -0.0755765403    0.0128590075         -0.3553
O284       O   -0.2856027818   -0.0361279797    0.0489254756          0.5977
C235       C    0.1393844957   -0.0000000000    0.0000000000         -0.3809
C236       C    0.1605353087   -0.0208611078    0.0209512952           0.612
C237       C    0.1962759074   -0.0149411611    0.0238361120          0.6095
C238       C    0.2124860790    0.0123288426    0.0047005233          0.6149
C239       C    0.1906547463    0.0333437859   -0.0161997653         -0.3782
C240       C    0.1546942818    0.0271788328   -0.0186095829          -0.376
N241       N    0.2470306979    0.0213095210    0.0060527528          0.6123
C242       C    0.2224104004   -0.0727525488    0.0419300695         -0.3795
H243       H    0.1485248466   -0.0424491981    0.0372543320          0.6068
H244       H    0.1370651379    0.0442453441   -0.0355712670         -0.3704
C245       C    0.1973502327    0.0575372368   -0.0334604206         -0.3737
N246       N    0.2682658233   -0.0055671197    0.0113099231         -0.3794
C247       C    0.3015766920    0.0064335098    0.0301876392          0.6023
C248       C    0.3293757040    0.0243444526    0.0045045725          0.6177
N249       N    0.3606155043   -0.0000000000    0.0000000000         -0.3664
N250       N    0.3433395464   -0.0241964939   -0.0046786610         -0.3536
N251       N    0.3167313184   -0.0174969285    0.0197118717         -0.3781
H252       H    0.3382412396    0.0500054111    0.0167297437          0.5975
H253       H    0.3173232867    0.0314777309   -0.0220428480         -0.3643
H254       H    0.3123937814   -0.0140154104    0.0492433846          0.5959
N255       N    0.2047341895    0.0876351186   -0.0365602335          0.6167
H256       H    0.1976385864   -0.0890298818    0.0440370051          -0.376
H257       H    0.2422131581   -0.0822270273    0.0619651830          0.6093
H258       H    0.2341951655   -0.0752410121    0.0146954967         -0.3553
O259       O    0.2143972182   -0.0349259235    0.0497906914          0.5977
C210       C    0.0000000000    0.0000000000   -0.3606155043         -0.3809
C211       C    0.0091953593    0.0280996078   -0.3394646913           0.612
C212       C    0.0144535804    0.0241348823   -0.3037240926          0.6095
C213       C    0.0097858899   -0.0088505163   -0.2875139210          0.6149
C214       C    0.0007058243   -0.0370640292   -0.3093452537         -0.3782
C215       C   -0.0042404253   -0.0326653383   -0.3453057182          -0.376
N216       N    0.0150683081   -0.0162381523   -0.2529693021          0.6123
C217       C    0.0043261150    0.0838591010   -0.2775895996         -0.3795
H218       H    0.0139191320    0.0547364361   -0.3514751534          0.6068
H219       H   -0.0116040281   -0.0555725836   -0.3629348621         -0.3704
C220       C   -0.0036882233   -0.0664569814   -0.3026497673         -0.3737
N221       N    0.0075492078    0.0100953774   -0.2317341767         -0.3794
C222       C    0.0298176714    0.0079743390   -0.1984233080          0.6023
C223       C    0.0150668980   -0.0196451555   -0.1706242960          0.6177
N224       N    0.0000000000    0.0000000000   -0.1393844957         -0.3664
N225       N   -0.0151548279    0.0194342836   -0.1566604536         -0.3536
N226       N    0.0096185377    0.0245394403   -0.1832686816         -0.3781
H227       H    0.0376104451   -0.0369578122   -0.1617587604          0.5975
H228       H   -0.0053475140   -0.0380544187   -0.1826767133         -0.3643
H229       H    0.0375112842    0.0348460358   -0.1876062186          0.5959
N230       N    0.0072156196   -0.0946810410   -0.2952658105          0.6167
H231       H   -0.0011872467    0.0993185185   -0.3023614136          -0.376
H232       H    0.0178751871    0.1013974635   -0.2577868419          0.6093
H233       H   -0.0210692147    0.0737106215   -0.2658048345         -0.3553
O234       O    0.0285046641    0.0537253870   -0.2856027818          0.5977
C185       C   -0.0000000000    0.0000000000    0.1393844957         -0.3809
C186       C    0.0142495820    0.0259054435    0.1605353087           0.612
C187       C    0.0186808347    0.0210338999    0.1962759074          0.6095
C188       C    0.0079737349   -0.0105126034    0.2124860790          0.6149
C189       C   -0.0061836906   -0.0365513669    0.1906547463         -0.3782
C190       C   -0.0102278667   -0.0313112803    0.1546942818          -0.376
N191       N    0.0117936410   -0.0187521074    0.2470306979          0.6123
C192       C    0.0198111090    0.0816001474    0.2224104004         -0.3795
H193       H    0.0238338082    0.0512032154    0.1485248466          0.6068
H194       H   -0.0217140546   -0.0524544121    0.1370651379         -0.3704
C195       C   -0.0159553183   -0.0646185824    0.1973502327         -0.3737
N196       N    0.0092913182    0.0085193068    0.2682658233         -0.3794
C197       C    0.0307795226    0.0023031711    0.3015766920          0.6023
C198       C    0.0111600834   -0.0220996852    0.3293757040          0.6177
N199       N   -0.0000000000    0.0000000000    0.3606155043         -0.3664
N200       N   -0.0112856138    0.0219087907    0.3433395464         -0.3536
N201       N    0.0140048201    0.0223285783    0.3167313184         -0.3781
H202       H    0.0300997784   -0.0432946741    0.3382412396          0.5975
H203       H   -0.0123156784   -0.0364013565    0.3173232867         -0.3643
H204       H    0.0433255966    0.0272806769    0.3123937814          0.5959
N205       N   -0.0104778193   -0.0943757383    0.2047341895          0.6167
H206       H    0.0172619950    0.0978141156    0.1976385864          -0.376
H207       H    0.0363791533    0.0963199103    0.2422131581          0.6093
H208       H   -0.0070262807    0.0763400216    0.2341951655         -0.3553
O209       O    0.0379784570    0.0475033671    0.2143972182          0.5977
loop_
_geom_bond_atom_site_label_1
_geom_bond_atom_site_label_2
_geom_bond_distance
_geom_bond_site_symmetry_2
_ccdc_geom_bond_type
Zn1          O5 1.942       .   S
Zn1          O6 1.922       .   S
Zn1         O10 1.922       .   S
Zn1         O17 1.922       .   S
Zn2          O5 1.942       .   S
Zn2          O7 1.922       .   S
Zn2          O9 1.922       .   S
Zn2         O13 1.922       .   S
Zn3          O5 1.942       .   S
Zn3          O8 1.922       .   S
Zn3         O11 1.922       .   S
Zn3         O14 1.922       .   S
Zn4          O5 1.942       .   S
Zn4         O12 1.922       .   S
Zn4         O15 1.922       .   S
Zn4         O16 1.922       .   S
O6          C18 1.304       .   A
O7          C19 1.304       .   A
O8          C20 1.304       .   A
O9          C18 1.304       .   A
O10         C20 1.304       .   A
O11         C19 1.304       .   A
O12         C21 1.304       .   A
O13         C22 1.304       .   A
O14         C21 1.304       .   A
O15         C22 1.304       .   A
O16         C23 1.304       .   A
O17         C23 1.304       .   A
C18        C185 1.540       .   S
C19        C235 1.540       .   S
C20        N324 1.540       .   S
C21        N224 1.540       .   S
C22        C285 1.540       .   S
C23        N274 1.540       .   S
Zn24        O28 1.942       .   S
Zn24        O29 1.922       .   S
Zn24        O33 1.922       .   S
Zn24        O40 1.922       .   S
Zn25        O28 1.942       .   S
Zn25        O30 1.922       .   S
Zn25        O32 1.922       .   S
Zn25        O36 1.922       .   S
Zn26        O28 1.942       .   S
Zn26        O31 1.922       .   S
Zn26        O34 1.922       .   S
Zn26        O37 1.922       .   S
Zn27        O28 1.942       .   S
Zn27        O35 1.922       .   S
Zn27        O38 1.922       .   S
Zn27        O39 1.922       .   S
O29         C41 1.304       .   A
O30         C42 1.304       .   A
O31         C43 1.304       .   A
O32         C41 1.304       .   A
O33         C43 1.304       .   A
O34         C42 1.304       .   A
O35         C44 1.304       .   A
O36         C45 1.304       .   A
O37         C44 1.304       .   A
O38         C45 1.304       .   A
O39         C46 1.304       .   A
O40         C46 1.304       .   A
C41        N199 1.540   1_655   S
C42        C335 1.540       .   S
C43        C385 1.540       .   S
C44        C210 1.540   1_656   S
C45        C410 1.540       .   S
C46        C360 1.540       .   S
Zn47        O51 1.942       .   S
Zn47        O52 1.922       .   S
Zn47        O56 1.922       .   S
Zn47        O63 1.922       .   S
Zn48        O51 1.942       .   S
Zn48        O53 1.922       .   S
Zn48        O55 1.922       .   S
Zn48        O59 1.922       .   S
Zn49        O51 1.942       .   S
Zn49        O54 1.922       .   S
Zn49        O57 1.922       .   S
Zn49        O60 1.922       .   S
Zn50        O51 1.942       .   S
Zn50        O58 1.922       .   S
Zn50        O61 1.922       .   S
Zn50        O62 1.922       .   S
O52         C64 1.304       .   A
O53         C65 1.304       .   A
O54         C66 1.304       .   A
O55         C64 1.304       .   A
O56         C66 1.304       .   A
O57         C65 1.304       .   A
O58         C67 1.304       .   A
O59         C68 1.304       .   A
O60         C67 1.304       .   A
O61         C68 1.304       .   A
O62         C69 1.304       .   A
O63         C69 1.304       .   A
C64        N299 1.540   1_655   S
C65        C435 1.540       .   S
C66        C485 1.540       .   S
C67        C310 1.540   1_665   S
C68        N524 1.540       .   S
C69        C460 1.540       .   S
Zn70        O74 1.942       .   S
Zn70        O75 1.922       .   S
Zn70        O79 1.922       .   S
Zn70        O86 1.922       .   S
Zn71        O74 1.942       .   S
Zn71        O76 1.922       .   S
Zn71        O78 1.922       .   S
Zn71        O82 1.922       .   S
Zn72        O74 1.942       .   S
Zn72        O77 1.922       .   S
Zn72        O80 1.922       .   S
Zn72        O83 1.922       .   S
Zn73        O74 1.942       .   S
Zn73        O81 1.922       .   S
Zn73        O84 1.922       .   S
Zn73        O85 1.922       .   S
O75         C87 1.304       .   A
O76         C88 1.304       .   A
O77         C89 1.304       .   A
O78         C87 1.304       .   A
O79         C89 1.304       .   A
O80         C88 1.304       .   A
O81         C90 1.304       .   A
O82         C91 1.304       .   A
O83         C90 1.304       .   A
O84         C91 1.304       .   A
O85         C92 1.304       .   A
O86         C92 1.304       .   A
C87        N399 1.540       .   S
C88        N449 1.540       .   S
C89        C560 1.540       .   S
C90        N424 1.540   1_565   S
C91        C535 1.540       .   S
C92        N474 1.540   1_556   S
Zn93        O97 1.942       .   S
Zn93        O98 1.922       .   S
Zn93       O102 1.922       .   S
Zn93       O109 1.922       .   S
Zn94        O97 1.942       .   S
Zn94        O99 1.922       .   S
Zn94       O101 1.922       .   S
Zn94       O105 1.922       .   S
Zn95        O97 1.942       .   S
Zn95       O100 1.922       .   S
Zn95       O103 1.922       .   S
Zn95       O106 1.922       .   S
Zn96        O97 1.942       .   S
Zn96       O104 1.922       .   S
Zn96       O107 1.922       .   S
Zn96       O108 1.922       .   S
O98        C110 1.304       .   A
O99        C111 1.304       .   A
O100       C112 1.304       .   A
O101       C110 1.304       .   A
O102       C112 1.304       .   A
O103       C111 1.304       .   A
O104       C113 1.304       .   A
O105       C114 1.304       .   A
O106       C113 1.304       .   A
O107       C114 1.304       .   A
O108       C115 1.304       .   A
O109       C115 1.304       .   A
C110       N249 1.540   1_565   S
C111       N599 1.540       .   S
C112       C660 1.540       .   S
C113       C260 1.540   1_665   S
C114       C635 1.540       .   S
C115       N624 1.540       .   S
Zn116      O120 1.942       .   S
Zn116      O121 1.922       .   S
Zn116      O125 1.922       .   S
Zn116      O132 1.922       .   S
Zn117      O120 1.942       .   S
Zn117      O122 1.922       .   S
Zn117      O124 1.922       .   S
Zn117      O128 1.922       .   S
Zn118      O120 1.942       .   S
Zn118      O123 1.922       .   S
Zn118      O126 1.922       .   S
Zn118      O129 1.922       .   S
Zn119      O120 1.942       .   S
Zn119      O127 1.922       .   S
Zn119      O130 1.922       .   S
Zn119      O131 1.922       .   S
O121       C133 1.304       .   A
O122       C134 1.304       .   A
O123       C135 1.304       .   A
O124       C133 1.304       .   A
O125       C135 1.304       .   A
O126       C134 1.304       .   A
O127       C136 1.304       .   A
O128       C137 1.304       .   A
O129       C136 1.304       .   A
O130       C137 1.304       .   A
O131       C138 1.304       .   A
O132       C138 1.304       .   A
C133       N349 1.540   1_465   S
C134       C585 1.540       .   S
C135       C685 1.540       .   S
C136       N374 1.540   1_565   S
C137       C710 1.540       .   S
C138       C610 1.540   1_556   S
Zn139      O143 1.942       .   S
Zn139      O144 1.922       .   S
Zn139      O148 1.922       .   S
Zn139      O155 1.922       .   S
Zn140      O143 1.942       .   S
Zn140      O145 1.922       .   S
Zn140      O147 1.922       .   S
Zn140      O151 1.922       .   S
Zn141      O143 1.942       .   S
Zn141      O146 1.922       .   S
Zn141      O149 1.922       .   S
Zn141      O152 1.922       .   S
Zn142      O143 1.942       .   S
Zn142      O150 1.922       .   S
Zn142      O153 1.922       .   S
Zn142      O154 1.922       .   S
O144       C156 1.304       .   A
O145       C157 1.304       .   A
O146       C158 1.304       .   A
O147       C156 1.304       .   A
O148       C158 1.304       .   A
O149       C157 1.304       .   A
O150       C159 1.304       .   A
O151       C160 1.304       .   A
O152       C159 1.304       .   A
O153       C160 1.304       .   A
O154       C161 1.304       .   A
O155       C161 1.304       .   A
C156       N499 1.540   1_455   S
C157       N649 1.540   1_545   S
C158       C760 1.540       .   S
C159       C510 1.540       .   S
C160       C735 1.540       .   S
C161       N674 1.540       .   S
Zn162      O166 1.942       .   S
Zn162      O167 1.922       .   S
Zn162      O171 1.922       .   S
Zn162      O178 1.922       .   S
Zn163      O166 1.942       .   S
Zn163      O168 1.922       .   S
Zn163      O170 1.922       .   S
Zn163      O174 1.922       .   S
Zn164      O166 1.942       .   S
Zn164      O169 1.922       .   S
Zn164      O172 1.922       .   S
Zn164      O175 1.922       .   S
Zn165      O166 1.942       .   S
Zn165      O173 1.922       .   S
Zn165      O176 1.922       .   S
Zn165      O177 1.922       .   S
O167       C179 1.304       .   A
O168       C180 1.304       .   A
O169       C181 1.304       .   A
O170       C179 1.304       .   A
O171       C181 1.304       .   A
O172       C180 1.304       .   A
O173       C182 1.304       .   A
O174       C183 1.304       .   A
O175       C182 1.304       .   A
O176       C183 1.304       .   A
O177       C184 1.304       .   A
O178       C184 1.304       .   A
C179       N549 1.540   1_455   S
C180       N699 1.540   1_545   S
C181       N749 1.540       .   S
C182       N574 1.540       .   S
C183       N774 1.540   1_556   S
C184       N724 1.540       .   S
C760       C761 0.034       .   A
C760       C765 0.034       .   A
C761       C762 0.034       .   A
C761       H768 0.027       .   A
C762       C763 0.034       .   A
C762       O784 0.035       .   A
C763       C764 0.034       .   A
C763       N766 0.033       .   A
C764       C765 0.034       .   A
C764       C770 0.028       .   A
C765       H769 0.028       .   A
N766       N771 0.032       .   A
C767       H781 0.027       .   A
C767       H782 0.027       .   A
C767       H783 0.028       .   A
C767       O784 0.036       .   A
C770       N780 0.029       .   A
N771       C772 0.037       .   A
C772       C773 0.039       .   A
C772       N776 0.028       .   A
C772       H779 0.028       .   A
C773       N774 0.037       .   A
C773       H777 0.028       .   A
C773       H778 0.028       .   A
N774       N775 0.028       .   A
N775       N776 0.034       .   A
C735       C736 0.034       .   A
C735       C740 0.034       .   A
C736       C737 0.034       .   A
C736       H743 0.027       .   A
C737       C738 0.034       .   A
C737       O759 0.035       .   A
C738       C739 0.034       .   A
C738       N741 0.033       .   A
C739       C740 0.034       .   A
C739       C745 0.028       .   A
C740       H744 0.028       .   A
N741       N746 0.032       .   A
C742       H756 0.027       .   A
C742       H757 0.027       .   A
C742       H758 0.028       .   A
C742       O759 0.036       .   A
C745       N755 0.029       .   A
N746       C747 0.037       .   A
C747       C748 0.039       .   A
C747       N751 0.028       .   A
C747       H754 0.028       .   A
C748       N749 0.037       .   A
C748       H752 0.028       .   A
C748       H753 0.028       .   A
N749       N750 0.028       .   A
N750       N751 0.034       .   A
C710       C711 0.034       .   A
C710       C715 0.034       .   A
C711       C712 0.034       .   A
C711       H718 0.027       .   A
C712       C713 0.034       .   A
C712       O734 0.035       .   A
C713       C714 0.034       .   A
C713       N716 0.033       .   A
C714       C715 0.034       .   A
C714       C720 0.028       .   A
C715       H719 0.028       .   A
N716       N721 0.032       .   A
C717       H731 0.027       .   A
C717       H732 0.027       .   A
C717       H733 0.028       .   A
C717       O734 0.036       .   A
C720       N730 0.029       .   A
N721       C722 0.037       .   A
C722       C723 0.039       .   A
C722       N726 0.028       .   A
C722       H729 0.028       .   A
C723       N724 0.037       .   A
C723       H727 0.028       .   A
C723       H728 0.028       .   A
N724       N725 0.028       .   A
N725       N726 0.034       .   A
C685       C686 0.034       .   A
C685       C690 0.034       .   A
C686       C687 0.034       .   A
C686       H693 0.027       .   A
C687       C688 0.034       .   A
C687       O709 0.035       .   A
C688       C689 0.034       .   A
C688       N691 0.033       .   A
C689       C690 0.034       .   A
C689       C695 0.028       .   A
C690       H694 0.028       .   A
N691       N696 0.032       .   A
C692       H706 0.027       .   A
C692       H707 0.027       .   A
C692       H708 0.028       .   A
C692       O709 0.036       .   A
C695       N705 0.029       .   A
N696       C697 0.037       .   A
C697       C698 0.039       .   A
C697       N701 0.028       .   A
C697       H704 0.028       .   A
C698       N699 0.037       .   A
C698       H702 0.028       .   A
C698       H703 0.028       .   A
N699       N700 0.028       .   A
N700       N701 0.034       .   A
C660       C661 0.034       .   A
C660       C665 0.034       .   A
C661       C662 0.034       .   A
C661       H668 0.027       .   A
C662       C663 0.034       .   A
C662       O684 0.035       .   A
C663       C664 0.034       .   A
C663       N666 0.033       .   A
C664       C665 0.034       .   A
C664       C670 0.028       .   A
C665       H669 0.028       .   A
N666       N671 0.032       .   A
C667       H681 0.027       .   A
C667       H682 0.027       .   A
C667       H683 0.028       .   A
C667       O684 0.036       .   A
C670       N680 0.029       .   A
N671       C672 0.037       .   A
C672       C673 0.039       .   A
C672       N676 0.028       .   A
C672       H679 0.028       .   A
C673       N674 0.037       .   A
C673       H677 0.028       .   A
C673       H678 0.028       .   A
N674       N675 0.028       .   A
N675       N676 0.034       .   A
C635       C636 0.034       .   A
C635       C640 0.034       .   A
C636       C637 0.034       .   A
C636       H643 0.027       .   A
C637       C638 0.034       .   A
C637       O659 0.035       .   A
C638       C639 0.034       .   A
C638       N641 0.033       .   A
C639       C640 0.034       .   A
C639       C645 0.028       .   A
C640       H644 0.028       .   A
N641       N646 0.032       .   A
C642       H656 0.027       .   A
C642       H657 0.027       .   A
C642       H658 0.028       .   A
C642       O659 0.036       .   A
C645       N655 0.029       .   A
N646       C647 0.037       .   A
C647       C648 0.039       .   A
C647       N651 0.028       .   A
C647       H654 0.028       .   A
C648       N649 0.037       .   A
C648       H652 0.028       .   A
C648       H653 0.028       .   A
N649       N650 0.028       .   A
N650       N651 0.034       .   A
C610       C611 0.034       .   A
C610       C615 0.034       .   A
C611       C612 0.034       .   A
C611       H618 0.027       .   A
C612       C613 0.034       .   A
C612       O634 0.035       .   A
C613       C614 0.034       .   A
C613       N616 0.033       .   A
C614       C615 0.034       .   A
C614       C620 0.028       .   A
C615       H619 0.028       .   A
N616       N621 0.032       .   A
C617       H631 0.027       .   A
C617       H632 0.027       .   A
C617       H633 0.028       .   A
C617       O634 0.036       .   A
C620       N630 0.029       .   A
N621       C622 0.037       .   A
C622       C623 0.039       .   A
C622       N626 0.028       .   A
C622       H629 0.028       .   A
C623       N624 0.037       .   A
C623       H627 0.028       .   A
C623       H628 0.028       .   A
N624       N625 0.028       .   A
N625       N626 0.034       .   A
C585       C586 0.034       .   A
C585       C590 0.034       .   A
C586       C587 0.034       .   A
C586       H593 0.027       .   A
C587       C588 0.034       .   A
C587       O609 0.035       .   A
C588       C589 0.034       .   A
C588       N591 0.033       .   A
C589       C590 0.034       .   A
C589       C595 0.028       .   A
C590       H594 0.028       .   A
N591       N596 0.032       .   A
C592       H606 0.027       .   A
C592       H607 0.027       .   A
C592       H608 0.028       .   A
C592       O609 0.036       .   A
C595       N605 0.029       .   A
N596       C597 0.037       .   A
C597       C598 0.039       .   A
C597       N601 0.028       .   A
C597       H604 0.028       .   A
C598       N599 0.037       .   A
C598       H602 0.028       .   A
C598       H603 0.028       .   A
N599       N600 0.028       .   A
N600       N601 0.034       .   A
C560       C561 0.034       .   A
C560       C565 0.034       .   A
C561       C562 0.034       .   A
C561       H568 0.027       .   A
C562       C563 0.034       .   A
C562       O584 0.035       .   A
C563       C564 0.034       .   A
C563       N566 0.033       .   A
C564       C565 0.034       .   A
C564       C570 0.028       .   A
C565       H569 0.028       .   A
N566       N571 0.032       .   A
C567       H581 0.027       .   A
C567       H582 0.027       .   A
C567       H583 0.028       .   A
C567       O584 0.036       .   A
C570       N580 0.029       .   A
N571       C572 0.037       .   A
C572       C573 0.039       .   A
C572       N576 0.028       .   A
C572       H579 0.028       .   A
C573       N574 0.037       .   A
C573       H577 0.028       .   A
C573       H578 0.028       .   A
N574       N575 0.028       .   A
N575       N576 0.034       .   A
C535       C536 0.034       .   A
C535       C540 0.034       .   A
C536       C537 0.034       .   A
C536       H543 0.027       .   A
C537       C538 0.034       .   A
C537       O559 0.035       .   A
C538       C539 0.034       .   A
C538       N541 0.033       .   A
C539       C540 0.034       .   A
C539       C545 0.028       .   A
C540       H544 0.028       .   A
N541       N546 0.032       .   A
C542       H556 0.027       .   A
C542       H557 0.027       .   A
C542       H558 0.028       .   A
C542       O559 0.036       .   A
C545       N555 0.029       .   A
N546       C547 0.037       .   A
C547       C548 0.039       .   A
C547       N551 0.028       .   A
C547       H554 0.028       .   A
C548       N549 0.037       .   A
C548       H552 0.028       .   A
C548       H553 0.028       .   A
N549       N550 0.028       .   A
N550       N551 0.034       .   A
C510       C511 0.034       .   A
C510       C515 0.034       .   A
C511       C512 0.034       .   A
C511       H518 0.027       .   A
C512       C513 0.034       .   A
C512       O534 0.035       .   A
C513       C514 0.034       .   A
C513       N516 0.033       .   A
C514       C515 0.034       .   A
C514       C520 0.028       .   A
C515       H519 0.028       .   A
N516       N521 0.032       .   A
C517       H531 0.027       .   A
C517       H532 0.027       .   A
C517       H533 0.028       .   A
C517       O534 0.036       .   A
C520       N530 0.029       .   A
N521       C522 0.037       .   A
C522       C523 0.039       .   A
C522       N526 0.028       .   A
C522       H529 0.028       .   A
C523       N524 0.037       .   A
C523       H527 0.028       .   A
C523       H528 0.028       .   A
N524       N525 0.028       .   A
N525       N526 0.034       .   A
C485       C486 0.034       .   A
C485       C490 0.034       .   A
C486       C487 0.034       .   A
C486       H493 0.027       .   A
C487       C488 0.034       .   A
C487       O509 0.035       .   A
C488       C489 0.034       .   A
C488       N491 0.033       .   A
C489       C490 0.034       .   A
C489       C495 0.028       .   A
C490       H494 0.028       .   A
N491       N496 0.032       .   A
C492       H506 0.027       .   A
C492       H507 0.027       .   A
C492       H508 0.028       .   A
C492       O509 0.036       .   A
C495       N505 0.029       .   A
N496       C497 0.037       .   A
C497       C498 0.039       .   A
C497       N501 0.028       .   A
C497       H504 0.028       .   A
C498       N499 0.037       .   A
C498       H502 0.028       .   A
C498       H503 0.028       .   A
N499       N500 0.028       .   A
N500       N501 0.034       .   A
C460       C461 0.034       .   A
C460       C465 0.034       .   A
C461       C462 0.034       .   A
C461       H468 0.027       .   A
C462       C463 0.034       .   A
C462       O484 0.035       .   A
C463       C464 0.034       .   A
C463       N466 0.033       .   A
C464       C465 0.034       .   A
C464       C470 0.028       .   A
C465       H469 0.028       .   A
N466       N471 0.032       .   A
C467       H481 0.027       .   A
C467       H482 0.027       .   A
C467       H483 0.028       .   A
C467       O484 0.036       .   A
C470       N480 0.029       .   A
N471       C472 0.037       .   A
C472       C473 0.039       .   A
C472       N476 0.028       .   A
C472       H479 0.028       .   A
C473       N474 0.037       .   A
C473       H477 0.028       .   A
C473       H478 0.028       .   A
N474       N475 0.028       .   A
N475       N476 0.034       .   A
C435       C436 0.034       .   A
C435       C440 0.034       .   A
C436       C437 0.034       .   A
C436       H443 0.027       .   A
C437       C438 0.034       .   A
C437       O459 0.035       .   A
C438       C439 0.034       .   A
C438       N441 0.033       .   A
C439       C440 0.034       .   A
C439       C445 0.028       .   A
C440       H444 0.028       .   A
N441       N446 0.032       .   A
C442       H456 0.027       .   A
C442       H457 0.027       .   A
C442       H458 0.028       .   A
C442       O459 0.036       .   A
C445       N455 0.029       .   A
N446       C447 0.037       .   A
C447       C448 0.039       .   A
C447       N451 0.028       .   A
C447       H454 0.028       .   A
C448       N449 0.037       .   A
C448       H452 0.028       .   A
C448       H453 0.028       .   A
N449       N450 0.028       .   A
N450       N451 0.034       .   A
C410       C411 0.034       .   A
C410       C415 0.034       .   A
C411       C412 0.034       .   A
C411       H418 0.027       .   A
C412       C413 0.034       .   A
C412       O434 0.035       .   A
C413       C414 0.034       .   A
C413       N416 0.033       .   A
C414       C415 0.034       .   A
C414       C420 0.028       .   A
C415       H419 0.028       .   A
N416       N421 0.032       .   A
C417       H431 0.027       .   A
C417       H432 0.027       .   A
C417       H433 0.028       .   A
C417       O434 0.036       .   A
C420       N430 0.029       .   A
N421       C422 0.037       .   A
C422       C423 0.039       .   A
C422       N426 0.028       .   A
C422       H429 0.028       .   A
C423       N424 0.037       .   A
C423       H427 0.028       .   A
C423       H428 0.028       .   A
N424       N425 0.028       .   A
N425       N426 0.034       .   A
C385       C386 0.034       .   A
C385       C390 0.034       .   A
C386       C387 0.034       .   A
C386       H393 0.027       .   A
C387       C388 0.034       .   A
C387       O409 0.035       .   A
C388       C389 0.034       .   A
C388       N391 0.033       .   A
C389       C390 0.034       .   A
C389       C395 0.028       .   A
C390       H394 0.028       .   A
N391       N396 0.032       .   A
C392       H406 0.027       .   A
C392       H407 0.027       .   A
C392       H408 0.028       .   A
C392       O409 0.036       .   A
C395       N405 0.029       .   A
N396       C397 0.037       .   A
C397       C398 0.039       .   A
C397       N401 0.028       .   A
C397       H404 0.028       .   A
C398       N399 0.037       .   A
C398       H402 0.028       .   A
C398       H403 0.028       .   A
N399       N400 0.028       .   A
N400       N401 0.034       .   A
C360       C361 0.034       .   A
C360       C365 0.034       .   A
C361       C362 0.034       .   A
C361       H368 0.027       .   A
C362       C363 0.034       .   A
C362       O384 0.035       .   A
C363       C364 0.034       .   A
C363       N366 0.033       .   A
C364       C365 0.034       .   A
C364       C370 0.028       .   A
C365       H369 0.028       .   A
N366       N371 0.032       .   A
C367       H381 0.027       .   A
C367       H382 0.027       .   A
C367       H383 0.028       .   A
C367       O384 0.036       .   A
C370       N380 0.029       .   A
N371       C372 0.037       .   A
C372       C373 0.039       .   A
C372       N376 0.028       .   A
C372       H379 0.028       .   A
C373       N374 0.037       .   A
C373       H377 0.028       .   A
C373       H378 0.028       .   A
N374       N375 0.028       .   A
N375       N376 0.034       .   A
C335       C336 0.034       .   A
C335       C340 0.034       .   A
C336       C337 0.034       .   A
C336       H343 0.027       .   A
C337       C338 0.034       .   A
C337       O359 0.035       .   A
C338       C339 0.034       .   A
C338       N341 0.033       .   A
C339       C340 0.034       .   A
C339       C345 0.028       .   A
C340       H344 0.028       .   A
N341       N346 0.032       .   A
C342       H356 0.027       .   A
C342       H357 0.027       .   A
C342       H358 0.028       .   A
C342       O359 0.036       .   A
C345       N355 0.029       .   A
N346       C347 0.037       .   A
C347       C348 0.039       .   A
C347       N351 0.028       .   A
C347       H354 0.028       .   A
C348       N349 0.037       .   A
C348       H352 0.028       .   A
C348       H353 0.028       .   A
N349       N350 0.028       .   A
N350       N351 0.034       .   A
C310       C311 0.034       .   A
C310       C315 0.034       .   A
C311       C312 0.034       .   A
C311       H318 0.027       .   A
C312       C313 0.034       .   A
C312       O334 0.035       .   A
C313       C314 0.034       .   A
C313       N316 0.033       .   A
C314       C315 0.034       .   A
C314       C320 0.028       .   A
C315       H319 0.028       .   A
N316       N321 0.032       .   A
C317       H331 0.027       .   A
C317       H332 0.027       .   A
C317       H333 0.028       .   A
C317       O334 0.036       .   A
C320       N330 0.029       .   A
N321       C322 0.037       .   A
C322       C323 0.039       .   A
C322       N326 0.028       .   A
C322       H329 0.028       .   A
C323       N324 0.037       .   A
C323       H327 0.028       .   A
C323       H328 0.028       .   A
N324       N325 0.028       .   A
N325       N326 0.034       .   A
C285       C286 0.034       .   A
C285       C290 0.034       .   A
C286       C287 0.034       .   A
C286       H293 0.027       .   A
C287       C288 0.034       .   A
C287       O309 0.035       .   A
C288       C289 0.034       .   A
C288       N291 0.033       .   A
C289       C290 0.034       .   A
C289       C295 0.028       .   A
C290       H294 0.028       .   A
N291       N296 0.032       .   A
C292       H306 0.027       .   A
C292       H307 0.027       .   A
C292       H308 0.028       .   A
C292       O309 0.036       .   A
C295       N305 0.029       .   A
N296       C297 0.037       .   A
C297       C298 0.039       .   A
C297       N301 0.028       .   A
C297       H304 0.028       .   A
C298       N299 0.037       .   A
C298       H302 0.028       .   A
C298       H303 0.028       .   A
N299       N300 0.028       .   A
N300       N301 0.034       .   A
C260       C261 0.034       .   A
C260       C265 0.034       .   A
C261       C262 0.034       .   A
C261       H268 0.027       .   A
C262       C263 0.034       .   A
C262       O284 0.035       .   A
C263       C264 0.034       .   A
C263       N266 0.033       .   A
C264       C265 0.034       .   A
C264       C270 0.028       .   A
C265       H269 0.028       .   A
N266       N271 0.032       .   A
C267       H281 0.027       .   A
C267       H282 0.027       .   A
C267       H283 0.028       .   A
C267       O284 0.036       .   A
C270       N280 0.029       .   A
N271       C272 0.037       .   A
C272       C273 0.039       .   A
C272       N276 0.028       .   A
C272       H279 0.028       .   A
C273       N274 0.037       .   A
C273       H277 0.028       .   A
C273       H278 0.028       .   A
N274       N275 0.028       .   A
N275       N276 0.034       .   A
C235       C236 0.034       .   A
C235       C240 0.034       .   A
C236       C237 0.034       .   A
C236       H243 0.027       .   A
C237       C238 0.034       .   A
C237       O259 0.035       .   A
C238       C239 0.034       .   A
C238       N241 0.033       .   A
C239       C240 0.034       .   A
C239       C245 0.028       .   A
C240       H244 0.028       .   A
N241       N246 0.032       .   A
C242       H256 0.027       .   A
C242       H257 0.027       .   A
C242       H258 0.028       .   A
C242       O259 0.036       .   A
C245       N255 0.029       .   A
N246       C247 0.037       .   A
C247       C248 0.039       .   A
C247       N251 0.028       .   A
C247       H254 0.028       .   A
C248       N249 0.037       .   A
C248       H252 0.028       .   A
C248       H253 0.028       .   A
N249       N250 0.028       .   A
N250       N251 0.034       .   A
C210       C211 0.034       .   A
C210       C215 0.034       .   A
C211       C212 0.034       .   A
C211       H218 0.027       .   A
C212       C213 0.034       .   A
C212       O234 0.035       .   A
C213       C214 0.034       .   A
C213       N216 0.033       .   A
C214       C215 0.034       .   A
C214       C220 0.028       .   A
C215       H219 0.028       .   A
N216       N221 0.032       .   A
C217       H231 0.027       .   A
C217       H232 0.027       .   A
C217       H233 0.028       .   A
C217       O234 0.036       .   A
C220       N230 0.029       .   A
N221       C222 0.037       .   A
C222       C223 0.039       .   A
C222       N226 0.028       .   A
C222       H229 0.028       .   A
C223       N224 0.037       .   A
C223       H227 0.028       .   A
C223       H228 0.028       .   A
N224       N225 0.028       .   A
N225       N226 0.034       .   A
C185       C186 0.034       .   A
C185       C190 0.034       .   A
C186       C187 0.034       .   A
C186       H193 0.027       .   A
C187       C188 0.034       .   A
C187       O209 0.035       .   A
C188       C189 0.034       .   A
C188       N191 0.033       .   A
C189       C190 0.034       .   A
C189       C195 0.028       .   A
C190       H194 0.028       .   A
N191       N196 0.032       .   A
C192       H206 0.027       .   A
C192       H207 0.027       .   A
C192       H208 0.028       .   A
C192       O209 0.036       .   A
C195       N205 0.029       .   A
N196       C197 0.037       .   A
C197       C198 0.039       .   A
C197       N201 0.028       .   A
C197       H204 0.028       .   A
C198       N199 0.037       .   A
C198       H202 0.028       .   A
C198       H203 0.028       .   A
N199       N200 0.028       .   A
N200       N201 0.034       .   A
