data_pcu_v1-6c_Zn_1_Ch_1-62_fer_tobacco
_audit_creation_date              2021-02-03
_audit_creation_method            'tobacco_3.0'
_symmetry_space_group_name_H-M    'P1'
_symmetry_Int_Tables_number       1
_symmetry_cell_setting            triclinic
loop_
_symmetry_equiv_pos_as_xyz
  x,y,z
_cell_length_a                    36.61788629283289
_cell_length_b                    36.61788629283289
_cell_length_c                    36.61788629283289
_cell_angle_alpha                 90.0
_cell_angle_beta                  90.0
_cell_angle_gamma                 90.0
loop_
_atom_site_label
_atom_site_type_symbol
_atom_site_fract_x
_atom_site_fract_y
_atom_site_fract_z
_atom_site_charge
Zn1       Zn   -0.0306189164   -0.0306189164    0.0306189164          1.4972
Zn2       Zn    0.0306189164    0.0306189164    0.0306189164          1.4936
Zn3       Zn    0.0306189164   -0.0306189164   -0.0306189164          1.4911
Zn4       Zn   -0.0306189164    0.0306189164   -0.0306189164          1.4948
O5         O    0.0000000000    0.0000000000    0.0000000000         -2.1242
O6         O   -0.0225026642   -0.0225026642    0.0818343248         -1.0305
O7         O    0.0818343248    0.0225026642    0.0225026642         -1.0287
O8         O    0.0225026642   -0.0818343248   -0.0225026642         -1.0238
O9         O    0.0225026642    0.0225026642    0.0818343248         -1.0306
O10        O   -0.0225026642   -0.0818343248    0.0225026642         -1.0266
O11        O    0.0818343248   -0.0225026642   -0.0225026642         -1.0324
O12        O   -0.0225026642    0.0225026642   -0.0818343248         -1.0263
O13        O    0.0225026642    0.0818343248    0.0225026642         -1.0339
O14        O    0.0225026642   -0.0225026642   -0.0818343248         -1.0278
O15        O   -0.0225026642    0.0818343248   -0.0225026642         -1.0325
O16        O   -0.0818343248    0.0225026642   -0.0225026642         -1.0316
O17        O   -0.0818343248   -0.0225026642    0.0225026642         -1.0295
C18        C   -0.0000000000   -0.0000000000    0.0978428949          0.4884
C19        C    0.0978428949   -0.0000000000   -0.0000000000          0.4933
C20        C   -0.0000000000   -0.0978428949    0.0000000000          0.4829
C21        C    0.0000000000    0.0000000000   -0.0978428949          0.4867
C22        C    0.0000000000    0.0978428949   -0.0000000000          0.4981
C23        C   -0.0978428949    0.0000000000    0.0000000000          0.4886
Zn24      Zn    0.9693810836    0.0306189164    0.4693810836          1.4972
Zn25      Zn    1.0306189164   -0.0306189164    0.4693810836          1.4936
Zn26      Zn    1.0306189164    0.0306189164    0.5306189164          1.4911
Zn27      Zn    0.9693810836   -0.0306189164    0.5306189164          1.4948
O28        O    1.0000000000    0.0000000000    0.5000000000         -2.1242
O29        O    0.9774973358    0.0225026642    0.4181656752         -1.0305
O30        O    1.0818343248   -0.0225026642    0.4774973358         -1.0287
O31        O    1.0225026642    0.0818343248    0.5225026642         -1.0238
O32        O    1.0225026642   -0.0225026642    0.4181656752         -1.0306
O33        O    0.9774973358    0.0818343248    0.4774973358         -1.0266
O34        O    1.0818343248    0.0225026642    0.5225026642         -1.0324
O35        O    0.9774973358   -0.0225026642    0.5818343248         -1.0263
O36        O    1.0225026642   -0.0818343248    0.4774973358         -1.0339
O37        O    1.0225026642    0.0225026642    0.5818343248         -1.0278
O38        O    0.9774973358   -0.0818343248    0.5225026642         -1.0325
O39        O    0.9181656752   -0.0225026642    0.5225026642         -1.0316
O40        O    0.9181656752    0.0225026642    0.4774973358         -1.0295
C41        C    1.0000000000    0.0000000000    0.4021571051          0.4884
C42        C    1.0978428949    0.0000000000    0.5000000000          0.4933
C43        C    1.0000000000    0.0978428949    0.5000000000          0.4829
C44        C    1.0000000000    0.0000000000    0.5978428949          0.4867
C45        C    1.0000000000   -0.0978428949    0.5000000000          0.4981
C46        C    0.9021571051    0.0000000000    0.5000000000          0.4886
Zn47      Zn    1.0306189164    0.4693810836    0.0306189164          1.4972
Zn48      Zn    0.9693810836    0.4693810836   -0.0306189164          1.4936
Zn49      Zn    0.9693810836    0.5306189164    0.0306189164          1.4911
Zn50      Zn    1.0306189164    0.5306189164   -0.0306189164          1.4948
O51        O    1.0000000000    0.5000000000    0.0000000000         -2.1242
O52        O    1.0225026642    0.4181656752    0.0225026642         -1.0305
O53        O    0.9181656752    0.4774973358   -0.0225026642         -1.0287
O54        O    0.9774973358    0.5225026642    0.0818343248         -1.0238
O55        O    0.9774973358    0.4181656752   -0.0225026642         -1.0306
O56        O    1.0225026642    0.4774973358    0.0818343248         -1.0266
O57        O    0.9181656752    0.5225026642    0.0225026642         -1.0324
O58        O    1.0225026642    0.5818343248   -0.0225026642         -1.0263
O59        O    0.9774973358    0.4774973358   -0.0818343248         -1.0339
O60        O    0.9774973358    0.5818343248    0.0225026642         -1.0278
O61        O    1.0225026642    0.5225026642   -0.0818343248         -1.0325
O62        O    1.0818343248    0.5225026642   -0.0225026642         -1.0316
O63        O    1.0818343248    0.4774973358    0.0225026642         -1.0295
C64        C    1.0000000000    0.4021571051    0.0000000000          0.4884
C65        C    0.9021571051    0.5000000000    0.0000000000          0.4933
C66        C    1.0000000000    0.5000000000    0.0978428949          0.4829
C67        C    1.0000000000    0.5978428949    0.0000000000          0.4867
C68        C    1.0000000000    0.5000000000   -0.0978428949          0.4981
C69        C    1.0978428949    0.5000000000    0.0000000000          0.4886
Zn70      Zn    1.0306189164    0.4693810836    0.5306189164          1.4972
Zn71      Zn    0.9693810836    0.4693810836    0.4693810836          1.4936
Zn72      Zn    0.9693810836    0.5306189164    0.5306189164          1.4911
Zn73      Zn    1.0306189164    0.5306189164    0.4693810836          1.4948
O74        O    1.0000000000    0.5000000000    0.5000000000         -2.1242
O75        O    1.0225026642    0.4181656752    0.5225026642         -1.0305
O76        O    0.9181656752    0.4774973358    0.4774973358         -1.0287
O77        O    0.9774973358    0.5225026642    0.5818343248         -1.0238
O78        O    0.9774973358    0.4181656752    0.4774973358         -1.0306
O79        O    1.0225026642    0.4774973358    0.5818343248         -1.0266
O80        O    0.9181656752    0.5225026642    0.5225026642         -1.0324
O81        O    1.0225026642    0.5818343248    0.4774973358         -1.0263
O82        O    0.9774973358    0.4774973358    0.4181656752         -1.0339
O83        O    0.9774973358    0.5818343248    0.5225026642         -1.0278
O84        O    1.0225026642    0.5225026642    0.4181656752         -1.0325
O85        O    1.0818343248    0.5225026642    0.4774973358         -1.0316
O86        O    1.0818343248    0.4774973358    0.5225026642         -1.0295
C87        C    1.0000000000    0.4021571051    0.5000000000          0.4884
C88        C    0.9021571051    0.5000000000    0.5000000000          0.4933
C89        C    1.0000000000    0.5000000000    0.5978428949          0.4829
C90        C    1.0000000000    0.5978428949    0.5000000000          0.4867
C91        C    1.0000000000    0.5000000000    0.4021571051          0.4981
C92        C    1.0978428949    0.5000000000    0.5000000000          0.4886
Zn93      Zn    0.4693810836    0.9693810836   -0.0306189164          1.4972
Zn94      Zn    0.4693810836    1.0306189164    0.0306189164          1.4936
Zn95      Zn    0.5306189164    0.9693810836    0.0306189164          1.4911
Zn96      Zn    0.5306189164    1.0306189164   -0.0306189164          1.4948
O97        O    0.5000000000    1.0000000000    0.0000000000         -2.1242
O98        O    0.4181656752    0.9774973358   -0.0225026642         -1.0305
O99        O    0.4774973358    1.0225026642    0.0818343248         -1.0287
O100       O    0.5225026642    0.9181656752    0.0225026642         -1.0238
O101       O    0.4181656752    1.0225026642    0.0225026642         -1.0306
O102       O    0.4774973358    0.9181656752   -0.0225026642         -1.0266
O103       O    0.5225026642    0.9774973358    0.0818343248         -1.0324
O104       O    0.5818343248    1.0225026642   -0.0225026642         -1.0263
O105       O    0.4774973358    1.0818343248    0.0225026642         -1.0339
O106       O    0.5818343248    0.9774973358    0.0225026642         -1.0278
O107       O    0.5225026642    1.0818343248   -0.0225026642         -1.0325
O108       O    0.5225026642    1.0225026642   -0.0818343248         -1.0316
O109       O    0.4774973358    0.9774973358   -0.0818343248         -1.0295
C110       C    0.4021571051    1.0000000000    0.0000000000          0.4884
C111       C    0.5000000000    1.0000000000    0.0978428949          0.4933
C112       C    0.5000000000    0.9021571051    0.0000000000          0.4829
C113       C    0.5978428949    1.0000000000    0.0000000000          0.4867
C114       C    0.5000000000    1.0978428949    0.0000000000          0.4981
C115       C    0.5000000000    1.0000000000   -0.0978428949          0.4886
Zn116     Zn    0.4693810836    1.0306189164    0.5306189164          1.4972
Zn117     Zn    0.4693810836    0.9693810836    0.4693810836          1.4936
Zn118     Zn    0.5306189164    1.0306189164    0.4693810836          1.4911
Zn119     Zn    0.5306189164    0.9693810836    0.5306189164          1.4948
O120       O    0.5000000000    1.0000000000    0.5000000000         -2.1242
O121       O    0.4181656752    1.0225026642    0.5225026642         -1.0305
O122       O    0.4774973358    0.9774973358    0.4181656752         -1.0287
O123       O    0.5225026642    1.0818343248    0.4774973358         -1.0238
O124       O    0.4181656752    0.9774973358    0.4774973358         -1.0306
O125       O    0.4774973358    1.0818343248    0.5225026642         -1.0266
O126       O    0.5225026642    1.0225026642    0.4181656752         -1.0324
O127       O    0.5818343248    0.9774973358    0.5225026642         -1.0263
O128       O    0.4774973358    0.9181656752    0.4774973358         -1.0339
O129       O    0.5818343248    1.0225026642    0.4774973358         -1.0278
O130       O    0.5225026642    0.9181656752    0.5225026642         -1.0325
O131       O    0.5225026642    0.9774973358    0.5818343248         -1.0316
O132       O    0.4774973358    1.0225026642    0.5818343248         -1.0295
C133       C    0.4021571051    1.0000000000    0.5000000000          0.4884
C134       C    0.5000000000    1.0000000000    0.4021571051          0.4933
C135       C    0.5000000000    1.0978428949    0.5000000000          0.4829
C136       C    0.5978428949    1.0000000000    0.5000000000          0.4867
C137       C    0.5000000000    0.9021571051    0.5000000000          0.4981
C138       C    0.5000000000    1.0000000000    0.5978428949          0.4886
Zn139     Zn    0.5306189164    0.5306189164   -0.0306189164          1.4972
Zn140     Zn    0.4693810836    0.5306189164    0.0306189164          1.4936
Zn141     Zn    0.4693810836    0.4693810836   -0.0306189164          1.4911
Zn142     Zn    0.5306189164    0.4693810836    0.0306189164          1.4948
O143       O    0.5000000000    0.5000000000    0.0000000000         -2.1242
O144       O    0.5225026642    0.5818343248   -0.0225026642         -1.0305
O145       O    0.4181656752    0.5225026642    0.0225026642         -1.0287
O146       O    0.4774973358    0.4774973358   -0.0818343248         -1.0238
O147       O    0.4774973358    0.5818343248    0.0225026642         -1.0306
O148       O    0.5225026642    0.5225026642   -0.0818343248         -1.0266
O149       O    0.4181656752    0.4774973358   -0.0225026642         -1.0324
O150       O    0.5225026642    0.4181656752    0.0225026642         -1.0263
O151       O    0.4774973358    0.5225026642    0.0818343248         -1.0339
O152       O    0.4774973358    0.4181656752   -0.0225026642         -1.0278
O153       O    0.5225026642    0.4774973358    0.0818343248         -1.0325
O154       O    0.5818343248    0.4774973358    0.0225026642         -1.0316
O155       O    0.5818343248    0.5225026642   -0.0225026642         -1.0295
C156       C    0.5000000000    0.5978428949    0.0000000000          0.4884
C157       C    0.4021571051    0.5000000000    0.0000000000          0.4933
C158       C    0.5000000000    0.5000000000   -0.0978428949          0.4829
C159       C    0.5000000000    0.4021571051    0.0000000000          0.4867
C160       C    0.5000000000    0.5000000000    0.0978428949          0.4981
C161       C    0.5978428949    0.5000000000    0.0000000000          0.4886
Zn162     Zn    0.4693810836    0.5306189164    0.4693810836          1.4972
Zn163     Zn    0.4693810836    0.4693810836    0.5306189164          1.4936
Zn164     Zn    0.5306189164    0.4693810836    0.4693810836          1.4911
Zn165     Zn    0.5306189164    0.5306189164    0.5306189164          1.4948
O166       O    0.5000000000    0.5000000000    0.5000000000         -2.1242
O167       O    0.4181656752    0.5225026642    0.4774973358         -1.0305
O168       O    0.4774973358    0.4181656752    0.5225026642         -1.0287
O169       O    0.5225026642    0.4774973358    0.4181656752         -1.0238
O170       O    0.4181656752    0.4774973358    0.5225026642         -1.0306
O171       O    0.4774973358    0.5225026642    0.4181656752         -1.0266
O172       O    0.5225026642    0.4181656752    0.4774973358         -1.0324
O173       O    0.5818343248    0.5225026642    0.5225026642         -1.0263
O174       O    0.4774973358    0.4774973358    0.5818343248         -1.0339
O175       O    0.5818343248    0.4774973358    0.4774973358         -1.0278
O176       O    0.5225026642    0.5225026642    0.5818343248         -1.0325
O177       O    0.5225026642    0.5818343248    0.5225026642         -1.0316
O178       O    0.4774973358    0.5818343248    0.4774973358         -1.0295
C179       C    0.4021571051    0.5000000000    0.5000000000          0.4884
C180       C    0.5000000000    0.4021571051    0.5000000000          0.4933
C181       C    0.5000000000    0.5000000000    0.4021571051          0.4829
C182       C    0.5978428949    0.5000000000    0.5000000000          0.4867
C183       C    0.5000000000    0.5000000000    0.5978428949          0.4981
C184       C    0.5000000000    0.5978428949    0.5000000000          0.4886
C599       C    0.5000000000    0.5000000000   -0.3601011550         -0.2839
C600       C    0.4911557106    0.5310425347   -0.3418387143         -0.2764
C601       C    0.4906682773    0.5319933757   -0.3049462321         -0.2761
C602       C    0.4993525692    0.5020333746   -0.2855300019         -0.2835
C603       C    0.5084691888    0.4716010334   -0.3035161054          0.7088
C604       C    0.5087640190    0.4707039430   -0.3398937656          0.7086
C605       C    0.4987567951    0.5015069625   -0.2494150666         -0.2831
C606       C    0.5081169614    0.5894675680   -0.2784919435          0.7091
Br607     Br    0.4781993800    0.5755088269   -0.3655832293         -0.2653
H608       H    0.5161257619    0.4449693934   -0.3527233617          0.7023
H609       H    0.5154721294    0.4468481594   -0.2886239641          0.7028
C610       C    0.4989584075    0.5009600171   -0.2158481500         -0.2833
C611       C    0.4993974755    0.5003812625   -0.1778680074         -0.2837
C612       C    0.5000000000    0.5000000000   -0.1398988450         -0.2843
H613       H    0.4956424247    0.6118377246   -0.2631226212         -0.2803
H614       H    0.5200002045    0.6003336161   -0.3036304099           0.699
H615       H    0.5293231780    0.5765965058   -0.2619252472           0.691
O616       O    0.4798308332    0.5631639995   -0.2871340041         -0.2669
C581       C    0.5000000000    0.5000000000    0.1398988450         -0.2839
C582       C    0.5310425347    0.5088442894    0.1581612857         -0.2764
C583       C    0.5319933757    0.5093317227    0.1950537679         -0.2761
C584       C    0.5020333746    0.5006474308    0.2144699981         -0.2835
C585       C    0.4716010334    0.4915308112    0.1964838946          0.7088
C586       C    0.4707039430    0.4912359810    0.1601062344          0.7086
C587       C    0.5015069625    0.5012432049    0.2505849334         -0.2831
C588       C    0.5894675680    0.4918830386    0.2215080565          0.7091
Br589     Br    0.5755088269    0.5218006200    0.1344167707         -0.2653
H590       H    0.4449693934    0.4838742381    0.1472766383          0.7023
H591       H    0.4468481594    0.4845278706    0.2113760359          0.7028
C592       C    0.5009600171    0.5010415925    0.2841518500         -0.2833
C593       C    0.5003812625    0.5006025245    0.3221319926         -0.2837
C594       C    0.5000000000    0.5000000000    0.3601011550         -0.2843
H595       H    0.6118377246    0.5043575753    0.2368773788         -0.2803
H596       H    0.6003336161    0.4799997955    0.1963695901           0.699
H597       H    0.5765965058    0.4706768220    0.2380747528           0.691
O598       O    0.5631639995    0.5201691668    0.2128659959         -0.2669
C563       C    0.5000000000    0.8601011550    0.5000000000         -0.2839
C564       C    0.4912918223    0.8418387143    0.5310809919         -0.2764
C565       C    0.4908085602    0.8049462321    0.5320339597         -0.2761
C566       C    0.4993614856    0.7855300019    0.5020361921         -0.2835
C567       C    0.5083446647    0.8035161054    0.4715641945          0.7088
C568       C    0.5086355610    0.8398937656    0.4706658207          0.7086
C569       C    0.4987634105    0.7494150666    0.5015123956         -0.2831
C570       C    0.5085089258    0.7784919435    0.5894311409          0.7091
Br571     Br    0.4785304651    0.8655832293    0.5756036311         -0.2653
H572       H    0.5158844658    0.8527233617    0.4448992595          0.7023
H573       H    0.5152390722    0.7886239641    0.4467808717          0.7028
C574       C    0.4989626242    0.7158481500    0.5009645721         -0.2833
C575       C    0.4993991520    0.6778680074    0.5003838990         -0.2837
C576       C    0.5000000000    0.6398988450    0.5000000000         -0.2843
H577       H    0.4961325337    0.7631226212    0.6118557456         -0.2803
H578       H    0.5204396692    0.8036304099    0.6002450130           0.699
H579       H    0.5296585384    0.7619252472    0.5764672777           0.691
O580       O    0.4801078082    0.7871340041    0.5632517733         -0.2669
C545       C    0.5000000000    1.1398988450    0.5000000000         -0.2839
C546       C    0.4689574653    1.1581612857    0.5088442894         -0.2764
C547       C    0.4680066243    1.1950537679    0.5093317227         -0.2761
C548       C    0.4979666254    1.2144699981    0.5006474308         -0.2835
C549       C    0.5283989666    1.1964838946    0.4915308112          0.7088
C550       C    0.5292960570    1.1601062344    0.4912359810          0.7086
C551       C    0.4984930375    1.2505849334    0.5012432049         -0.2831
C552       C    0.4105324320    1.2215080565    0.4918830386          0.7091
Br553     Br    0.4244911731    1.1344167707    0.5218006200         -0.2653
H554       H    0.5550306066    1.1472766383    0.4838742381          0.7023
H555       H    0.5531518406    1.2113760359    0.4845278706          0.7028
C556       C    0.4990399829    1.2841518500    0.5010415925         -0.2833
C557       C    0.4996187375    1.3221319926    0.5006025245         -0.2837
C558       C    0.5000000000    1.3601011550    0.5000000000         -0.2843
H559       H    0.3881622754    1.2368773788    0.5043575753         -0.2803
H560       H    0.3996663839    1.1963695901    0.4799997955           0.699
H561       H    0.4234034942    1.2380747528    0.4706768220           0.691
O562       O    0.4368360005    1.2128659959    0.5201691668         -0.2669
C527       C    0.5000000000    0.6398988450    0.0000000000         -0.2839
C528       C    0.4719698539    0.6581612857    0.0160053530         -0.2764
C529       C    0.4711630204    0.6950537679    0.0167058597         -0.2761
C530       C    0.4981802182    0.7144699981    0.0011145282         -0.2835
C531       C    0.5255527752    0.6964838946   -0.0150094684          0.7088
C532       C    0.5263534351    0.6601062344   -0.0155101078          0.7086
C533       C    0.4988337358    0.7505849334    0.0015672658         -0.2831
C534       C    0.4111844247    0.7215080565    0.0134953457          0.7091
Br535     Br    0.4318872943    0.6344167707    0.0392110864         -0.2653
H536       H    0.5495835794    0.6472766383   -0.0288075773          0.7023
H537       H    0.5479154098    0.7113760359   -0.0277239689          0.7028
C538       C    0.4993166659    0.7841518500    0.0012408072         -0.2833
C539       C    0.4997737468    0.8221319926    0.0006761703         -0.2837
C540       C    0.5000000000    0.8601011550    0.0000000000         -0.2843
H541       H    0.3924428636    0.7368773788    0.0309536350         -0.2803
H542       H    0.3977937555    0.6963695901    0.0045526141           0.699
H543       H    0.4186157043    0.7380747528   -0.0101720146           0.691
O544       O    0.4434847357    0.7128659959    0.0346772407         -0.2669
C509       C    0.5000000000    1.1398988450    0.0000000000         -0.2839
C510       C    0.5136068783    1.1581612857    0.0292696648         -0.2764
C511       C    0.5142375073    1.1950537679    0.0301322174         -0.2761
C512       C    0.5009585499    1.2144699981    0.0019065574         -0.2835
C513       C    0.4871784880    1.1964838946   -0.0267177337          0.7088
C514       C    0.4867465113    1.1601062344   -0.0275574314          0.7086
C515       C    0.5014643183    1.2505849334    0.0012931613         -0.2831
C516       C    0.5060257982    1.2215080565    0.0896326979          0.7091
Br517     Br    0.5333817262    1.1344167707    0.0711513199         -0.2653
H518       H    0.4754369066    1.1472766383   -0.0518175868          0.7023
H519       H    0.4763773151    1.2113760359   -0.0500646952          0.7028
C520       C    0.5011793603    1.2841518500    0.0007846383         -0.2833
C521       C    0.5006548970    1.3221319926    0.0002819694         -0.2837
C522       C    0.5000000000    1.3601011550    0.0000000000         -0.2843
H523       H    0.5218567796    1.2368773788    0.1097676924         -0.2803
H524       H    0.4959952878    1.1963695901    0.1022291787           0.699
H525       H    0.4830622628    1.2380747528    0.0802495266           0.691
O526       O    0.5298329414    1.2128659959    0.0592155531         -0.2669
C491       C    0.5000000000    1.0000000000   -0.1398988450         -0.2839
C492       C    0.4911557106    0.9689574653   -0.1581612857         -0.2764
C493       C    0.4906682773    0.9680066243   -0.1950537679         -0.2761
C494       C    0.4993525692    0.9979666254   -0.2144699981         -0.2835
C495       C    0.5084691888    1.0283989666   -0.1964838946          0.7088
C496       C    0.5087640190    1.0292960570   -0.1601062344          0.7086
C497       C    0.4987567951    0.9984930375   -0.2505849334         -0.2831
C498       C    0.5081169614    0.9105324320   -0.2215080565          0.7091
Br499     Br    0.4781993800    0.9244911731   -0.1344167707         -0.2653
H500       H    0.5161257619    1.0550306066   -0.1472766383          0.7023
H501       H    0.5154721294    1.0531518406   -0.2113760359          0.7028
C502       C    0.4989584075    0.9990399829   -0.2841518500         -0.2833
C503       C    0.4993974755    0.9996187375   -0.3221319926         -0.2837
C504       C    0.5000000000    1.0000000000   -0.3601011550         -0.2843
H505       H    0.4956424247    0.8881622754   -0.2368773788         -0.2803
H506       H    0.5200002045    0.8996663839   -0.1963695901           0.699
H507       H    0.5293231780    0.9234034942   -0.2380747528           0.691
O508       O    0.4798308332    0.9368360005   -0.2128659959         -0.2669
C473       C    0.5000000000    1.0000000000    0.1398988450         -0.2839
C474       C    0.5310425347    1.0088442894    0.1581612857         -0.2764
C475       C    0.5319933757    1.0093317227    0.1950537679         -0.2761
C476       C    0.5020333746    1.0006474308    0.2144699981         -0.2835
C477       C    0.4716010334    0.9915308112    0.1964838946          0.7088
C478       C    0.4707039430    0.9912359810    0.1601062344          0.7086
C479       C    0.5015069625    1.0012432049    0.2505849334         -0.2831
C480       C    0.5894675680    0.9918830386    0.2215080565          0.7091
Br481     Br    0.5755088269    1.0218006200    0.1344167707         -0.2653
H482       H    0.4449693934    0.9838742381    0.1472766383          0.7023
H483       H    0.4468481594    0.9845278706    0.2113760359          0.7028
C484       C    0.5009600171    1.0010415925    0.2841518500         -0.2833
C485       C    0.5003812625    1.0006025245    0.3221319926         -0.2837
C486       C    0.5000000000    1.0000000000    0.3601011550         -0.2843
H487       H    0.6118377246    1.0043575753    0.2368773788         -0.2803
H488       H    0.6003336161    0.9799997955    0.1963695901           0.699
H489       H    0.5765965058    0.9706768220    0.2380747528           0.691
O490       O    0.5631639995    1.0201691668    0.2128659959         -0.2669
C455       C    0.8601011550    0.5000000000    0.5000000000         -0.2839
C456       C    0.8418387143    0.4843644193    0.5282380777         -0.2764
C457       C    0.8049462321    0.4840389378    0.5292557966         -0.2761
C458       C    0.7855300019    0.4990240859    0.5018977278         -0.2835
C459       C    0.8035161054    0.5140361456    0.4738999027          0.7088
C460       C    0.8398937656    0.5144601867    0.4730561697          0.7086
C461       C    0.7494150666    0.4998176955    0.5019450602         -0.2831
C462       C    0.7784919435    0.4311217117    0.5576724559          0.7091
Br463     Br    0.8655832293    0.4621712557    0.5688900289         -0.2653
H464       H    0.8527233617    0.5274011501    0.4496255538          0.7023
H465       H    0.7886239641    0.5265387192    0.4514180967          0.7028
C466       C    0.7158481500    0.5000607391    0.5014152239         -0.2833
C467       C    0.6778680074    0.5001579579    0.5006953029         -0.2837
C468       C    0.6398988450    0.5000000000    0.5000000000         -0.2843
H469       H    0.7631226212    0.4241776805    0.5823264294         -0.2803
H470       H    0.8036304099    0.4150340177    0.5569879334           0.699
H471       H    0.7619252472    0.4251758407    0.5335889661           0.691
O472       O    0.7871340041    0.4697253940    0.5589909684         -0.2669
C437       C    1.1398988450    0.5000000000    0.5000000000         -0.2839
C438       C    1.1581612857    0.5282380777    0.4843644193         -0.2764
C439       C    1.1950537679    0.5292557966    0.4840389378         -0.2761
C440       C    1.2144699981    0.5018977278    0.4990240859         -0.2835
C441       C    1.1964838946    0.4738999027    0.5140361456          0.7088
C442       C    1.1601062344    0.4730561697    0.5144601867          0.7086
C443       C    1.2505849334    0.5019450602    0.4998176955         -0.2831
C444       C    1.2215080565    0.5576724559    0.4311217117          0.7091
Br445     Br    1.1344167707    0.5688900289    0.4621712557         -0.2653
H446       H    1.1472766383    0.4496255538    0.5274011501          0.7023
H447       H    1.2113760359    0.4514180967    0.5265387192          0.7028
C448       C    1.2841518500    0.5014152239    0.5000607391         -0.2833
C449       C    1.3221319926    0.5006953029    0.5001579579         -0.2837
C450       C    1.3601011550    0.5000000000    0.5000000000         -0.2843
H451       H    1.2368773788    0.5823264294    0.4241776805         -0.2803
H452       H    1.1963695901    0.5569879334    0.4150340177           0.699
H453       H    1.2380747528    0.5335889661    0.4251758407           0.691
O454       O    1.2128659959    0.5589909684    0.4697253940         -0.2669
C419       C    0.6398988450    0.5000000000    0.0000000000         -0.2839
C420       C    0.6581612857    0.5251797595    0.0201950520         -0.2764
C421       C    0.6950537679    0.5258670154    0.0210132019         -0.2761
C422       C    0.7144699981    0.5016229237    0.0013856037         -0.2835
C423       C    0.6964838946    0.4771112183   -0.0188237120          0.7088
C424       C    0.6601062344    0.4763987791   -0.0194434915          0.7086
C425       C    0.7505849334    0.5009066026    0.0017304814         -0.2831
C426       C    0.7215080565    0.5856089485    0.0272293723          0.7091
Br427     Br    0.6344167707    0.5611364912    0.0493880492         -0.2653
H428       H    0.6472766383    0.4555360646   -0.0362127921          0.7023
H429       H    0.7113760359    0.4570140838   -0.0348814557          0.7028
C430       C    0.7841518500    0.5004807171    0.0013324635         -0.2833
C431       C    0.8221319926    0.5001176390    0.0007032481         -0.2837
C432       C    0.8601011550    0.5000000000    0.0000000000         -0.2843
H433       H    0.7368773788    0.6013871930    0.0474057192         -0.2803
H434       H    0.6963695901    0.6002342082    0.0204925891           0.699
H435       H    0.7380747528    0.5819733739    0.0026906180           0.691
O436       O    0.7128659959    0.5503915508    0.0430949849         -0.2669
C401       C    1.1398988450    0.5000000000    0.0000000000         -0.2839
C402       C    1.1581612857    0.4679378314    0.0037252867         -0.2764
C403       C    1.1950537679    0.4668727908    0.0036393889         -0.2761
C404       C    1.2144699981    0.4978737408    0.0001811102         -0.2835
C405       C    1.1964838946    0.5294766359   -0.0030588234          0.7088
C406       C    1.1601062344    0.5304182285   -0.0031302332          0.7086
C407       C    1.2505849334    0.4981316935   -0.0005708984         -0.2831
C408       C    1.2215080565    0.4204709569    0.0417787276          0.7091
Br409     Br    1.1344167707    0.4219008244    0.0087959502         -0.2653
H410       H    1.1472766383    0.5570094614   -0.0061910559          0.7023
H411       H    1.2113760359    0.5550236344   -0.0060749154          0.7028
C412       C    1.2841518500    0.4987141466   -0.0005942465         -0.2833
C413       C    1.3221319926    0.4994169671   -0.0004104503         -0.2837
C414       C    1.3601011550    0.5000000000    0.0000000000         -0.2843
H415       H    1.2368773788    0.3950282714    0.0388278418         -0.2803
H416       H    1.1963695901    0.4149875278    0.0569185583           0.699
H417       H    1.2380747528    0.4404852545    0.0564346395           0.691
O418       O    1.2128659959    0.4339285925    0.0055727225         -0.2669
C383       C    1.0000000000    0.5000000000   -0.3601011550         -0.2839
C384       C    1.0310425347    0.5088442894   -0.3418387143         -0.2764
C385       C    1.0319933757    0.5093317227   -0.3049462321         -0.2761
C386       C    1.0020333746    0.5006474308   -0.2855300019         -0.2835
C387       C    0.9716010334    0.4915308112   -0.3035161054          0.7088
C388       C    0.9707039430    0.4912359810   -0.3398937656          0.7086
C389       C    1.0015069625    0.5012432049   -0.2494150666         -0.2831
C390       C    1.0894675680    0.4918830386   -0.2784919435          0.7091
Br391     Br    1.0755088269    0.5218006200   -0.3655832293         -0.2653
H392       H    0.9449693934    0.4838742381   -0.3527233617          0.7023
H393       H    0.9468481594    0.4845278706   -0.2886239641          0.7028
C394       C    1.0009600171    0.5010415925   -0.2158481500         -0.2833
C395       C    1.0003812625    0.5006025245   -0.1778680074         -0.2837
C396       C    1.0000000000    0.5000000000   -0.1398988450         -0.2843
H397       H    1.1118377246    0.5043575753   -0.2631226212         -0.2803
H398       H    1.1003336161    0.4799997955   -0.3036304099           0.699
H399       H    1.0765965058    0.4706768220   -0.2619252472           0.691
O400       O    1.0631639995    0.5201691668   -0.2871340041         -0.2669
C365       C    1.0000000000    0.5000000000    0.1398988450         -0.2839
C366       C    0.9689574653    0.4911557106    0.1581612857         -0.2764
C367       C    0.9680066243    0.4906682773    0.1950537679         -0.2761
C368       C    0.9979666254    0.4993525692    0.2144699981         -0.2835
C369       C    1.0283989666    0.5084691888    0.1964838946          0.7088
C370       C    1.0292960570    0.5087640190    0.1601062344          0.7086
C371       C    0.9984930375    0.4987567951    0.2505849334         -0.2831
C372       C    0.9105324320    0.5081169614    0.2215080565          0.7091
Br373     Br    0.9244911731    0.4781993800    0.1344167707         -0.2653
H374       H    1.0550306066    0.5161257619    0.1472766383          0.7023
H375       H    1.0531518406    0.5154721294    0.2113760359 0.6971999999999999
C376       C    0.9990399829    0.4989584075    0.2841518500         -0.2833
C377       C    0.9996187375    0.4993974755    0.3221319926         -0.2837
C378       C    1.0000000000    0.5000000000    0.3601011550         -0.2843
H379       H    0.8881622754    0.4956424247    0.2368773788         -0.2803
H380       H    0.8996663839    0.5200002045    0.1963695901           0.699
H381       H    0.9234034942    0.5293231780    0.2380747528           0.691
O382       O    0.9368360005    0.4798308332    0.2128659959         -0.2669
C347       C    1.0000000000   -0.3601011550    0.5000000000         -0.2839
C348       C    0.9689574653   -0.3418387143    0.5088442894         -0.2764
C349       C    0.9680066243   -0.3049462321    0.5093317227         -0.2761
C350       C    0.9979666254   -0.2855300019    0.5006474308         -0.2835
C351       C    1.0283989666   -0.3035161054    0.4915308112          0.7088
C352       C    1.0292960570   -0.3398937656    0.4912359810          0.7086
C353       C    0.9984930375   -0.2494150666    0.5012432049         -0.2831
C354       C    0.9105324320   -0.2784919435    0.4918830386          0.7091
Br355     Br    0.9244911731   -0.3655832293    0.5218006200         -0.2653
H356       H    1.0550306066   -0.3527233617    0.4838742381          0.7023
H357       H    1.0531518406   -0.2886239641    0.4845278706          0.7028
C358       C    0.9990399829   -0.2158481500    0.5010415925         -0.2833
C359       C    0.9996187375   -0.1778680074    0.5006025245         -0.2837
C360       C    1.0000000000   -0.1398988450    0.5000000000         -0.2843
H361       H    0.8881622754   -0.2631226212    0.5043575753         -0.2803
H362       H    0.8996663839   -0.3036304099    0.4799997955           0.699
H363       H    0.9234034942   -0.2619252472    0.4706768220           0.691
O364       O    0.9368360005   -0.2871340041    0.5201691668         -0.2669
C329       C    1.0000000000    0.3601011550    0.5000000000         -0.2839
C330       C    1.0090065679    0.3418387143    0.4690041592         -0.2764
C331       C    1.0094989689    0.3049462321    0.4680558811         -0.2761
C332       C    1.0006580596    0.2855300019    0.4979700402         -0.2835
C333       C    0.9913823575    0.3035161054    0.5283542713          0.7088
C334       C    0.9910828381    0.3398937656    0.5292498070          0.7086
C335       C    1.0012510715    0.2494150666    0.4984995620         -0.2831
C336       C    0.9923512007    0.2784919435    0.4104911923          0.7091
Br337     Br    1.0221953473    0.3655832293    0.4246062567         -0.2653
H338       H    0.9835865653    0.3527233617    0.5549454914          0.7023
H339       H    0.9842500176    0.2886239641    0.5530701705          0.7028
C340       C    1.0010466006    0.2158481500    0.4990454451         -0.2833
C341       C    1.0006045108    0.1778680074    0.4996218949         -0.2837
C342       C    1.0000000000    0.1398988450    0.5000000000         -0.2843
H343       H    1.0049425965    0.2631226212    0.3881866025         -0.2803
H344       H    0.9805249661    0.3036304099    0.3995631255           0.699
H345       H    0.9710779391    0.2619252472    0.4232511377           0.691
O346       O    1.0204993343    0.2871340041    0.4369423802         -0.2669
C311       C    0.8601011550   -0.0000000000    0.5000000000         -0.2839
C312       C    0.8418387143    0.0284522597    0.4847576467         -0.2764
C313       C    0.8049462321    0.0292777210    0.4840791900         -0.2761
C314       C    0.7855300019    0.0018492238    0.4989350350         -0.2835
C315       C    0.8035161054   -0.0259488916    0.5143137517          0.7088
C316       C    0.8398937656   -0.0267627828    0.5147925808          0.7086
C317       C    0.7494150666    0.0012081741    0.4984648096         -0.2831
C318       C    0.7784919435    0.0891477072    0.4889086935          0.7091
Br319     Br    0.8655832293    0.0691470338    0.4626431039         -0.2653
H320       H    0.8527233617   -0.0503436459    0.5274576980          0.7023
H321       H    0.7886239641   -0.0486468142    0.5264195460          0.7028
C322       C    0.7158481500    0.0007166018    0.4987781041         -0.2833
C323       C    0.6778680074    0.0002444355    0.4993301880         -0.2837
C324       C    0.6398988450   -0.0000000000    0.5000000000         -0.2843
H325       H    0.7631226212    0.1083540184    0.4719630278         -0.2803
H326       H    0.8036304099    0.1022919262    0.4982098749           0.699
H327       H    0.7619252472    0.0810798289    0.5123666815           0.691
O328       O    0.7871340041    0.0574313547    0.4668620214         -0.2669
C293       C    1.1398988450   -0.0000000000    0.5000000000         -0.2839
C294       C    1.1581612857    0.0311929653    0.4917018478         -0.2764
C295       C    1.1950537679    0.0322592865    0.4916336644         -0.2761
C296       C    1.2144699981    0.0020781006    0.4995149465         -0.2835
C297       C    1.1964838946   -0.0287301766    0.5072667336          0.7088
C298       C    1.1601062344   -0.0296517074    0.5074728331          0.7086
C299       C    1.2505849334    0.0019309939    0.5002962379         -0.2831
C300       C    1.2215080565    0.0726929330    0.4472167804          0.7091
Br301     Br    1.1344167707    0.0760219485    0.4800622639         -0.2653
H302       H    1.1472766383   -0.0555261960    0.5143265286          0.7023
H303       H    1.2113760359   -0.0535777226    0.5139259681          0.7028
C304       C    1.2841518500    0.0013579554    0.5004031192         -0.2833
C305       C    1.3221319926    0.0006360068    0.5003223230         -0.2837
C306       C    1.3601011550   -0.0000000000    0.5000000000         -0.2843
H307       H    1.2368773788    0.0982954995    0.4464774825         -0.2803
H308       H    1.1963695901    0.0759417363    0.4314456757           0.699
H309       H    1.2380747528    0.0507787396    0.4355919798           0.691
O310       O    1.2128659959    0.0645828524    0.4849819675         -0.2669
C275       C    0.0000000000   -0.3601011550    0.0000000000         -0.2839
C276       C    0.0322504191   -0.3418387143   -0.0013307442         -0.2764
C277       C    0.0332889525   -0.3049462321   -0.0015820177         -0.2761
C278       C    0.0021284393   -0.2855300019   -0.0001533793         -0.2835
C279       C   -0.0295925038   -0.3035161054    0.0015849859          0.7088
C280       C   -0.0305336879   -0.3398937656    0.0016615935          0.7086
C281       C    0.0017561413   -0.2494150666   -0.0008558398         -0.2831
C282       C    0.0850806590   -0.2784919435    0.0288376880          0.7091
Br283     Br    0.0785142316   -0.3655832293   -0.0035164487         -0.2653
H284       H   -0.0572765488   -0.3527233617    0.0027937109          0.7023
H285       H   -0.0552969691   -0.2886239641    0.0025981050          0.7028
C286       C    0.0011771952   -0.2158481500   -0.0007878827         -0.2833
C287       C    0.0005117303   -0.1778680074   -0.0004965168         -0.2837
C288       C   -0.0000000000   -0.1398988450    0.0000000000         -0.2843
H289       H    0.1097496499   -0.2631226212    0.0219471972         -0.2803
H290       H    0.0928625820   -0.3036304099    0.0429346431           0.699
H291       H    0.0676024788   -0.2619252472    0.0464411274           0.691
O292       O    0.0661305420   -0.2871340041   -0.0048205329         -0.2669
C257       C    0.0000000000    0.3601011550    0.0000000000         -0.2839
C258       C    0.0069107992    0.3418387143   -0.0315293715         -0.2764
C259       C    0.0073385962    0.3049462321   -0.0325084934         -0.2761
C260       C    0.0005206517    0.2855300019   -0.0020694687         -0.2835
C261       C   -0.0066996325    0.3035161054    0.0288676876          0.7088
C262       C   -0.0069385124    0.3398937656    0.0297812698          0.7086
C263       C    0.0011477907    0.2494150666   -0.0015808449         -0.2831
C264       C   -0.0136253491    0.2784919435   -0.0887957242          0.7091
Br265     Br    0.0170969899    0.3655832293   -0.0767107744         -0.2653
H266       H   -0.0126973172    0.3527233617    0.0559212482          0.7023
H267       H   -0.0121609298    0.2886239641    0.0540057101          0.7028
C268       C    0.0009803323    0.2158481500   -0.0010224952         -0.2833
C269       C    0.0005778352    0.1778680074   -0.0004177359         -0.2837
C270       C    0.0000000000    0.1398988450   -0.0000000000         -0.2843
H271       H   -0.0025557817    0.2631226212   -0.1118934006         -0.2803
H272       H   -0.0261568084    0.3036304099   -0.0989073510           0.699
H273       H   -0.0339964274    0.2619252472   -0.0746399115           0.691
O274       O    0.0162308391    0.2871340041   -0.0642887703         -0.2669
C239       C   -0.3601011550   -0.0000000000    0.0000000000         -0.2839
C240       C   -0.3418387143    0.0132002834   -0.0294552700         -0.2764
C241       C   -0.3049462321    0.0138189084   -0.0303264721         -0.2761
C242       C   -0.2855300019    0.0009320583   -0.0019196475         -0.2835
C243       C   -0.3035161054   -0.0124503284    0.0268927088          0.7088
C244       C   -0.3398937656   -0.0128706366    0.0277383075          0.7086
C245       C   -0.2494150666    0.0014462718   -0.0013133134         -0.2831
C246       C   -0.2784919435    0.0047840970   -0.0897075426          0.7091
Br247     Br   -0.3655832293    0.0323933097   -0.0716067277         -0.2653
H248       H   -0.3527233617   -0.0238432322    0.0521527386          0.7023
H249       H   -0.2886239641   -0.0229271857    0.0503869933          0.7028
C250       C   -0.2158481500    0.0011683825   -0.0008008934         -0.2833
C251       C   -0.1778680074    0.0006509298   -0.0002910106         -0.2837
C252       C   -0.1398988450   -0.0000000000    0.0000000000         -0.2843
H253       H   -0.2631226212    0.0203347559   -0.1100598147         -0.2803
H254       H   -0.3036304099   -0.0054198724   -0.1021639256           0.699
H255       H   -0.2619252472   -0.0180473103   -0.0800073000           0.691
O256       O   -0.2871340041    0.0290101370   -0.0596229660         -0.2669
C221       C    0.3601011550   -0.0000000000    0.0000000000         -0.2839
C222       C    0.3418387143    0.0228663965   -0.0227813152         -0.2764
C223       C    0.3049462321    0.0234618557   -0.0236685121         -0.2761
C224       C    0.2855300019    0.0014648064   -0.0015518123         -0.2835
C225       C    0.3035161054   -0.0207358651    0.0211719711          0.7088
C226       C    0.3398937656   -0.0213776565    0.0218646470          0.7086
C227       C    0.2494150666    0.0007156030   -0.0018178026         -0.2831
C228       C    0.2784919435    0.0821912973   -0.0362618453          0.7091
Br229     Br    0.3655832293    0.0554815954   -0.0556654520         -0.2653
H230       H    0.3527233617   -0.0403196954    0.0407765868          0.7023
H231       H    0.2886239641   -0.0389931309    0.0392942831          0.7028
C232       C    0.2158481500    0.0003349042   -0.0013763673         -0.2833
C233       C    0.1778680074    0.0000414681   -0.0007118126         -0.2837
C234       C    0.1398988450   -0.0000000000    0.0000000000         -0.2843
H235       H    0.2631226212    0.0957125116   -0.0580153447         -0.2803
H236       H    0.3036304099    0.0974552171   -0.0311339586           0.699
H237       H    0.2619252472    0.0812108774   -0.0114746180           0.691
O238       O    0.2871340041    0.0454742805   -0.0482553203         -0.2669
C203       C    0.0000000000    0.0000000000   -0.1398988450         -0.2839
C204       C   -0.0233635832   -0.0222711337   -0.1581612857         -0.2764
C205       C   -0.0242658450   -0.0228435091   -0.1950537679         -0.2761
C206       C   -0.0015890812   -0.0014242893   -0.2144699981         -0.2835
C207       C    0.0216998166    0.0201828249   -0.1964838946          0.7088
C208       C    0.0224088173    0.0208065349   -0.1601062344          0.7086
C209       C   -0.0018356570   -0.0006684739   -0.2505849334         -0.2831
C210       C   -0.0383699391   -0.0812285575   -0.2215080565          0.7091
Br211     Br   -0.0570781007   -0.0540272190   -0.1344167707         -0.2653
H212       H    0.0418030821    0.0392544289   -0.1472766383          0.7023
H213       H    0.0402870524    0.0379665425   -0.2113760359          0.7028
C214       C   -0.0013845483   -0.0002992888   -0.2841518500         -0.2833
C215       C   -0.0007126455   -0.0000230928   -0.3221319926         -0.2837
C216       C    0.0000000000    0.0000000000   -0.3601011550         -0.2843
H217       H   -0.0604649855   -0.0941841316   -0.2368773788         -0.2803
H218       H   -0.0336374981   -0.0966196741   -0.1963695901           0.699
H219       H   -0.0135656695   -0.0808878611   -0.2380747528           0.691
O220       O   -0.0494122917   -0.0442143817   -0.2128659959         -0.2669
C185       C   -0.0000000000    0.0000000000    0.1398988450         -0.2839
C186       C    0.0190845282   -0.0260315424    0.1581612857         -0.2764
C187       C    0.0198721166   -0.0267536188    0.1950537679         -0.2761
C188       C    0.0013139476   -0.0016814639    0.2144699981         -0.2835
C189       C   -0.0178137910    0.0236832707    0.1964838946          0.7088
C190       C   -0.0184021037    0.0244219075    0.1601062344          0.7086
C191       C    0.0016895535   -0.0009807665    0.2505849334         -0.2831
C192       C    0.0234926381   -0.0867088619    0.2215080565          0.7091
Br193     Br    0.0466913628   -0.0632199858    0.1344167707         -0.2653
H194       H   -0.0342512443    0.0459919572    0.1472766383          0.7023
H195       H   -0.0329852313    0.0444576142    0.2113760359          0.7028
C196       C    0.0013103719   -0.0005380273    0.2841518500         -0.2833
C197       C    0.0006974874   -0.0001480142    0.3221319926         -0.2837
C198       C    0.0000000000    0.0000000000    0.3601011550         -0.2843
H199       H    0.0429660333   -0.1033469162    0.2368773788         -0.2803
H200       H    0.0161281846   -0.1010283345    0.1963695901           0.699
H201       H   -0.0008654469   -0.0820129530    0.2380747528           0.691
O202       O    0.0408700061   -0.0522123426    0.2128659959         -0.2669
loop_
_geom_bond_atom_site_label_1
_geom_bond_atom_site_label_2
_geom_bond_distance
_geom_bond_site_symmetry_2
_ccdc_geom_bond_type
Zn1          O5 1.942       .   S
Zn1          O6 1.922       .   S
Zn1         O10 1.922       .   S
Zn1         O17 1.922       .   S
Zn2          O5 1.942       .   S
Zn2          O7 1.922       .   S
Zn2          O9 1.922       .   S
Zn2         O13 1.922       .   S
Zn3          O5 1.942       .   S
Zn3          O8 1.922       .   S
Zn3         O11 1.922       .   S
Zn3         O14 1.922       .   S
Zn4          O5 1.942       .   S
Zn4         O12 1.922       .   S
Zn4         O15 1.922       .   S
Zn4         O16 1.922       .   S
O6          C18 1.304       .   A
O7          C19 1.304       .   A
O8          C20 1.304       .   A
O9          C18 1.304       .   A
O10         C20 1.304       .   A
O11         C19 1.304       .   A
O12         C21 1.304       .   A
O13         C22 1.304       .   A
O14         C21 1.304       .   A
O15         C22 1.304       .   A
O16         C23 1.304       .   A
O17         C23 1.304       .   A
C18        C185 1.540       .   S
C19        C234 1.540       .   S
C20        C288 1.540       .   S
C21        C203 1.540       .   S
C22        C270 1.540       .   S
C23        C252 1.540       .   S
Zn24        O28 1.942       .   S
Zn24        O29 1.922       .   S
Zn24        O33 1.922       .   S
Zn24        O40 1.922       .   S
Zn25        O28 1.942       .   S
Zn25        O30 1.922       .   S
Zn25        O32 1.922       .   S
Zn25        O36 1.922       .   S
Zn26        O28 1.942       .   S
Zn26        O31 1.922       .   S
Zn26        O34 1.922       .   S
Zn26        O37 1.922       .   S
Zn27        O28 1.942       .   S
Zn27        O35 1.922       .   S
Zn27        O38 1.922       .   S
Zn27        O39 1.922       .   S
O29         C41 1.304       .   A
O30         C42 1.304       .   A
O31         C43 1.304       .   A
O32         C41 1.304       .   A
O33         C43 1.304       .   A
O34         C42 1.304       .   A
O35         C44 1.304       .   A
O36         C45 1.304       .   A
O37         C44 1.304       .   A
O38         C45 1.304       .   A
O39         C46 1.304       .   A
O40         C46 1.304       .   A
C41        C198 1.540   1_655   S
C42        C293 1.540       .   S
C43        C342 1.540       .   S
C44        C216 1.540   1_656   S
C45        C360 1.540       .   S
C46        C311 1.540       .   S
Zn47        O51 1.942       .   S
Zn47        O52 1.922       .   S
Zn47        O56 1.922       .   S
Zn47        O63 1.922       .   S
Zn48        O51 1.942       .   S
Zn48        O53 1.922       .   S
Zn48        O55 1.922       .   S
Zn48        O59 1.922       .   S
Zn49        O51 1.942       .   S
Zn49        O54 1.922       .   S
Zn49        O57 1.922       .   S
Zn49        O60 1.922       .   S
Zn50        O51 1.942       .   S
Zn50        O58 1.922       .   S
Zn50        O61 1.922       .   S
Zn50        O62 1.922       .   S
O52         C64 1.304       .   A
O53         C65 1.304       .   A
O54         C66 1.304       .   A
O55         C64 1.304       .   A
O56         C66 1.304       .   A
O57         C65 1.304       .   A
O58         C67 1.304       .   A
O59         C68 1.304       .   A
O60         C67 1.304       .   A
O61         C68 1.304       .   A
O62         C69 1.304       .   A
O63         C69 1.304       .   A
C64        C257 1.540   1_655   S
C65        C432 1.540       .   S
C66        C365 1.540       .   S
C67        C275 1.540   1_665   S
C68        C396 1.540       .   S
C69        C401 1.540       .   S
Zn70        O74 1.942       .   S
Zn70        O75 1.922       .   S
Zn70        O79 1.922       .   S
Zn70        O86 1.922       .   S
Zn71        O74 1.942       .   S
Zn71        O76 1.922       .   S
Zn71        O78 1.922       .   S
Zn71        O82 1.922       .   S
Zn72        O74 1.942       .   S
Zn72        O77 1.922       .   S
Zn72        O80 1.922       .   S
Zn72        O83 1.922       .   S
Zn73        O74 1.942       .   S
Zn73        O81 1.922       .   S
Zn73        O84 1.922       .   S
Zn73        O85 1.922       .   S
O75         C87 1.304       .   A
O76         C88 1.304       .   A
O77         C89 1.304       .   A
O78         C87 1.304       .   A
O79         C89 1.304       .   A
O80         C88 1.304       .   A
O81         C90 1.304       .   A
O82         C91 1.304       .   A
O83         C90 1.304       .   A
O84         C91 1.304       .   A
O85         C92 1.304       .   A
O86         C92 1.304       .   A
C87        C329 1.540       .   S
C88        C455 1.540       .   S
C89        C383 1.540   1_556   S
C90        C347 1.540   1_565   S
C91        C378 1.540       .   S
C92        C437 1.540       .   S
Zn93        O97 1.942       .   S
Zn93        O98 1.922       .   S
Zn93       O102 1.922       .   S
Zn93       O109 1.922       .   S
Zn94        O97 1.942       .   S
Zn94        O99 1.922       .   S
Zn94       O101 1.922       .   S
Zn94       O105 1.922       .   S
Zn95        O97 1.942       .   S
Zn95       O100 1.922       .   S
Zn95       O103 1.922       .   S
Zn95       O106 1.922       .   S
Zn96        O97 1.942       .   S
Zn96       O104 1.922       .   S
Zn96       O107 1.922       .   S
Zn96       O108 1.922       .   S
O98        C110 1.304       .   A
O99        C111 1.304       .   A
O100       C112 1.304       .   A
O101       C110 1.304       .   A
O102       C112 1.304       .   A
O103       C111 1.304       .   A
O104       C113 1.304       .   A
O105       C114 1.304       .   A
O106       C113 1.304       .   A
O107       C114 1.304       .   A
O108       C115 1.304       .   A
O109       C115 1.304       .   A
C110       C221 1.540   1_565   S
C111       C473 1.540       .   S
C112       C540 1.540       .   S
C113       C239 1.540   1_665   S
C114       C509 1.540       .   S
C115       C491 1.540       .   S
Zn116      O120 1.942       .   S
Zn116      O121 1.922       .   S
Zn116      O125 1.922       .   S
Zn116      O132 1.922       .   S
Zn117      O120 1.942       .   S
Zn117      O122 1.922       .   S
Zn117      O124 1.922       .   S
Zn117      O128 1.922       .   S
Zn118      O120 1.942       .   S
Zn118      O123 1.922       .   S
Zn118      O126 1.922       .   S
Zn118      O129 1.922       .   S
Zn119      O120 1.942       .   S
Zn119      O127 1.922       .   S
Zn119      O130 1.922       .   S
Zn119      O131 1.922       .   S
O121       C133 1.304       .   A
O122       C134 1.304       .   A
O123       C135 1.304       .   A
O124       C133 1.304       .   A
O125       C135 1.304       .   A
O126       C134 1.304       .   A
O127       C136 1.304       .   A
O128       C137 1.304       .   A
O129       C136 1.304       .   A
O130       C137 1.304       .   A
O131       C138 1.304       .   A
O132       C138 1.304       .   A
C133       C306 1.540   1_465   S
C134       C486 1.540       .   S
C135       C545 1.540       .   S
C136       C324 1.540   1_565   S
C137       C563 1.540       .   S
C138       C504 1.540   1_556   S
Zn139      O143 1.942       .   S
Zn139      O144 1.922       .   S
Zn139      O148 1.922       .   S
Zn139      O155 1.922       .   S
Zn140      O143 1.942       .   S
Zn140      O145 1.922       .   S
Zn140      O147 1.922       .   S
Zn140      O151 1.922       .   S
Zn141      O143 1.942       .   S
Zn141      O146 1.922       .   S
Zn141      O149 1.922       .   S
Zn141      O152 1.922       .   S
Zn142      O143 1.942       .   S
Zn142      O150 1.922       .   S
Zn142      O153 1.922       .   S
Zn142      O154 1.922       .   S
O144       C156 1.304       .   A
O145       C157 1.304       .   A
O146       C158 1.304       .   A
O147       C156 1.304       .   A
O148       C158 1.304       .   A
O149       C157 1.304       .   A
O150       C159 1.304       .   A
O151       C160 1.304       .   A
O152       C159 1.304       .   A
O153       C160 1.304       .   A
O154       C161 1.304       .   A
O155       C161 1.304       .   A
C156       C527 1.540       .   S
C157       C414 1.540   1_455   S
C158       C612 1.540       .   S
C159       C522 1.540   1_545   S
C160       C581 1.540       .   S
C161       C419 1.540       .   S
Zn162      O166 1.942       .   S
Zn162      O167 1.922       .   S
Zn162      O171 1.922       .   S
Zn162      O178 1.922       .   S
Zn163      O166 1.942       .   S
Zn163      O168 1.922       .   S
Zn163      O170 1.922       .   S
Zn163      O174 1.922       .   S
Zn164      O166 1.942       .   S
Zn164      O169 1.922       .   S
Zn164      O172 1.922       .   S
Zn164      O175 1.922       .   S
Zn165      O166 1.942       .   S
Zn165      O173 1.922       .   S
Zn165      O176 1.922       .   S
Zn165      O177 1.922       .   S
O167       C179 1.304       .   A
O168       C180 1.304       .   A
O169       C181 1.304       .   A
O170       C179 1.304       .   A
O171       C181 1.304       .   A
O172       C180 1.304       .   A
O173       C182 1.304       .   A
O174       C183 1.304       .   A
O175       C182 1.304       .   A
O176       C183 1.304       .   A
O177       C184 1.304       .   A
O178       C184 1.304       .   A
C179       C450 1.540   1_455   S
C180       C558 1.540   1_545   S
C181       C594 1.540       .   S
C182       C468 1.540       .   S
C183       C599 1.540   1_556   S
C184       C576 1.540       .   S
C599       C600 0.032       .   A
C599       C604 0.031       .   A
C600       C601 0.031       .   A
C600      Br607 0.044       .   A
C601       C602 0.031       .   A
C601       O616 0.032       .   A
C602       C603 0.031       .   A
C602       C605 0.031       .   A
C603       C604 0.031       .   A
C603       H609 0.025       .   A
C604       H608 0.025       .   A
C605       C610 0.029       .   A
C606       H613 0.025       .   A
C606       H614 0.025       .   A
C606       H615 0.025       .   A
C606       O616 0.034       .   A
C610       C611 0.032       .   A
C611       C612 0.032       .   A
C581       C582 0.032       .   A
C581       C586 0.031       .   A
C582       C583 0.031       .   A
C582      Br589 0.044       .   A
C583       C584 0.031       .   A
C583       O598 0.032       .   A
C584       C585 0.031       .   A
C584       C587 0.031       .   A
C585       C586 0.031       .   A
C585       H591 0.025       .   A
C586       H590 0.025       .   A
C587       C592 0.029       .   A
C588       H595 0.025       .   A
C588       H596 0.025       .   A
C588       H597 0.025       .   A
C588       O598 0.034       .   A
C592       C593 0.032       .   A
C593       C594 0.032       .   A
C563       C564 0.032       .   A
C563       C568 0.031       .   A
C564       C565 0.031       .   A
C564      Br571 0.044       .   A
C565       C566 0.031       .   A
C565       O580 0.032       .   A
C566       C567 0.031       .   A
C566       C569 0.031       .   A
C567       C568 0.031       .   A
C567       H573 0.025       .   A
C568       H572 0.025       .   A
C569       C574 0.029       .   A
C570       H577 0.025       .   A
C570       H578 0.025       .   A
C570       H579 0.025       .   A
C570       O580 0.034       .   A
C574       C575 0.032       .   A
C575       C576 0.032       .   A
C545       C546 0.032       .   A
C545       C550 0.031       .   A
C546       C547 0.031       .   A
C546      Br553 0.044       .   A
C547       C548 0.031       .   A
C547       O562 0.032       .   A
C548       C549 0.031       .   A
C548       C551 0.031       .   A
C549       C550 0.031       .   A
C549       H555 0.025       .   A
C550       H554 0.025       .   A
C551       C556 0.029       .   A
C552       H559 0.025       .   A
C552       H560 0.025       .   A
C552       H561 0.025       .   A
C552       O562 0.034       .   A
C556       C557 0.032       .   A
C557       C558 0.032       .   A
C527       C528 0.032       .   A
C527       C532 0.031       .   A
C528       C529 0.031       .   A
C528      Br535 0.044       .   A
C529       C530 0.031       .   A
C529       O544 0.032       .   A
C530       C531 0.031       .   A
C530       C533 0.031       .   A
C531       C532 0.031       .   A
C531       H537 0.025       .   A
C532       H536 0.025       .   A
C533       C538 0.029       .   A
C534       H541 0.025       .   A
C534       H542 0.025       .   A
C534       H543 0.025       .   A
C534       O544 0.034       .   A
C538       C539 0.032       .   A
C539       C540 0.032       .   A
C509       C510 0.032       .   A
C509       C514 0.031       .   A
C510       C511 0.031       .   A
C510      Br517 0.044       .   A
C511       C512 0.031       .   A
C511       O526 0.032       .   A
C512       C513 0.031       .   A
C512       C515 0.031       .   A
C513       C514 0.031       .   A
C513       H519 0.025       .   A
C514       H518 0.025       .   A
C515       C520 0.029       .   A
C516       H523 0.025       .   A
C516       H524 0.025       .   A
C516       H525 0.025       .   A
C516       O526 0.034       .   A
C520       C521 0.032       .   A
C521       C522 0.032       .   A
C491       C492 0.032       .   A
C491       C496 0.031       .   A
C492       C493 0.031       .   A
C492      Br499 0.044       .   A
C493       C494 0.031       .   A
C493       O508 0.032       .   A
C494       C495 0.031       .   A
C494       C497 0.031       .   A
C495       C496 0.031       .   A
C495       H501 0.025       .   A
C496       H500 0.025       .   A
C497       C502 0.029       .   A
C498       H505 0.025       .   A
C498       H506 0.025       .   A
C498       H507 0.025       .   A
C498       O508 0.034       .   A
C502       C503 0.032       .   A
C503       C504 0.032       .   A
C473       C474 0.032       .   A
C473       C478 0.031       .   A
C474       C475 0.031       .   A
C474      Br481 0.044       .   A
C475       C476 0.031       .   A
C475       O490 0.032       .   A
C476       C477 0.031       .   A
C476       C479 0.031       .   A
C477       C478 0.031       .   A
C477       H483 0.025       .   A
C478       H482 0.025       .   A
C479       C484 0.029       .   A
C480       H487 0.025       .   A
C480       H488 0.025       .   A
C480       H489 0.025       .   A
C480       O490 0.034       .   A
C484       C485 0.032       .   A
C485       C486 0.032       .   A
C455       C456 0.032       .   A
C455       C460 0.031       .   A
C456       C457 0.031       .   A
C456      Br463 0.044       .   A
C457       C458 0.031       .   A
C457       O472 0.032       .   A
C458       C459 0.031       .   A
C458       C461 0.031       .   A
C459       C460 0.031       .   A
C459       H465 0.025       .   A
C460       H464 0.025       .   A
C461       C466 0.029       .   A
C462       H469 0.025       .   A
C462       H470 0.025       .   A
C462       H471 0.025       .   A
C462       O472 0.034       .   A
C466       C467 0.032       .   A
C467       C468 0.032       .   A
C437       C438 0.032       .   A
C437       C442 0.031       .   A
C438       C439 0.031       .   A
C438      Br445 0.044       .   A
C439       C440 0.031       .   A
C439       O454 0.032       .   A
C440       C441 0.031       .   A
C440       C443 0.031       .   A
C441       C442 0.031       .   A
C441       H447 0.025       .   A
C442       H446 0.025       .   A
C443       C448 0.029       .   A
C444       H451 0.025       .   A
C444       H452 0.025       .   A
C444       H453 0.025       .   A
C444       O454 0.034       .   A
C448       C449 0.032       .   A
C449       C450 0.032       .   A
C419       C420 0.032       .   A
C419       C424 0.031       .   A
C420       C421 0.031       .   A
C420      Br427 0.044       .   A
C421       C422 0.031       .   A
C421       O436 0.032       .   A
C422       C423 0.031       .   A
C422       C425 0.031       .   A
C423       C424 0.031       .   A
C423       H429 0.025       .   A
C424       H428 0.025       .   A
C425       C430 0.029       .   A
C426       H433 0.025       .   A
C426       H434 0.025       .   A
C426       H435 0.025       .   A
C426       O436 0.034       .   A
C430       C431 0.032       .   A
C431       C432 0.032       .   A
C401       C402 0.032       .   A
C401       C406 0.031       .   A
C402       C403 0.031       .   A
C402      Br409 0.044       .   A
C403       C404 0.031       .   A
C403       O418 0.032       .   A
C404       C405 0.031       .   A
C404       C407 0.031       .   A
C405       C406 0.031       .   A
C405       H411 0.025       .   A
C406       H410 0.025       .   A
C407       C412 0.029       .   A
C408       H415 0.025       .   A
C408       H416 0.025       .   A
C408       H417 0.025       .   A
C408       O418 0.034       .   A
C412       C413 0.032       .   A
C413       C414 0.032       .   A
C383       C384 0.032       .   A
C383       C388 0.031       .   A
C384       C385 0.031       .   A
C384      Br391 0.044       .   A
C385       C386 0.031       .   A
C385       O400 0.032       .   A
C386       C387 0.031       .   A
C386       C389 0.031       .   A
C387       C388 0.031       .   A
C387       H393 0.025       .   A
C388       H392 0.025       .   A
C389       C394 0.029       .   A
C390       H397 0.025       .   A
C390       H398 0.025       .   A
C390       H399 0.025       .   A
C390       O400 0.034       .   A
C394       C395 0.032       .   A
C395       C396 0.032       .   A
C365       C366 0.032       .   A
C365       C370 0.031       .   A
C366       C367 0.031       .   A
C366      Br373 0.044       .   A
C367       C368 0.031       .   A
C367       O382 0.032       .   A
C368       C369 0.031       .   A
C368       C371 0.031       .   A
C369       C370 0.031       .   A
C369       H375 0.025       .   A
C370       H374 0.025       .   A
C371       C376 0.029       .   A
C372       H379 0.025       .   A
C372       H380 0.025       .   A
C372       H381 0.025       .   A
C372       O382 0.034       .   A
C376       C377 0.032       .   A
C377       C378 0.032       .   A
C347       C348 0.032       .   A
C347       C352 0.031       .   A
C348       C349 0.031       .   A
C348      Br355 0.044       .   A
C349       C350 0.031       .   A
C349       O364 0.032       .   A
C350       C351 0.031       .   A
C350       C353 0.031       .   A
C351       C352 0.031       .   A
C351       H357 0.025       .   A
C352       H356 0.025       .   A
C353       C358 0.029       .   A
C354       H361 0.025       .   A
C354       H362 0.025       .   A
C354       H363 0.025       .   A
C354       O364 0.034       .   A
C358       C359 0.032       .   A
C359       C360 0.032       .   A
C329       C330 0.032       .   A
C329       C334 0.031       .   A
C330       C331 0.031       .   A
C330      Br337 0.044       .   A
C331       C332 0.031       .   A
C331       O346 0.032       .   A
C332       C333 0.031       .   A
C332       C335 0.031       .   A
C333       C334 0.031       .   A
C333       H339 0.025       .   A
C334       H338 0.025       .   A
C335       C340 0.029       .   A
C336       H343 0.025       .   A
C336       H344 0.025       .   A
C336       H345 0.025       .   A
C336       O346 0.034       .   A
C340       C341 0.032       .   A
C341       C342 0.032       .   A
C311       C312 0.032       .   A
C311       C316 0.031       .   A
C312       C313 0.031       .   A
C312      Br319 0.044       .   A
C313       C314 0.031       .   A
C313       O328 0.032       .   A
C314       C315 0.031       .   A
C314       C317 0.031       .   A
C315       C316 0.031       .   A
C315       H321 0.025       .   A
C316       H320 0.025       .   A
C317       C322 0.029       .   A
C318       H325 0.025       .   A
C318       H326 0.025       .   A
C318       H327 0.025       .   A
C318       O328 0.034       .   A
C322       C323 0.032       .   A
C323       C324 0.032       .   A
C293       C294 0.032       .   A
C293       C298 0.031       .   A
C294       C295 0.031       .   A
C294      Br301 0.044       .   A
C295       C296 0.031       .   A
C295       O310 0.032       .   A
C296       C297 0.031       .   A
C296       C299 0.031       .   A
C297       C298 0.031       .   A
C297       H303 0.025       .   A
C298       H302 0.025       .   A
C299       C304 0.029       .   A
C300       H307 0.025       .   A
C300       H308 0.025       .   A
C300       H309 0.025       .   A
C300       O310 0.034       .   A
C304       C305 0.032       .   A
C305       C306 0.032       .   A
C275       C276 0.032       .   A
C275       C280 0.031       .   A
C276       C277 0.031       .   A
C276      Br283 0.044       .   A
C277       C278 0.031       .   A
C277       O292 0.032       .   A
C278       C279 0.031       .   A
C278       C281 0.031       .   A
C279       C280 0.031       .   A
C279       H285 0.025       .   A
C280       H284 0.025       .   A
C281       C286 0.029       .   A
C282       H289 0.025       .   A
C282       H290 0.025       .   A
C282       H291 0.025       .   A
C282       O292 0.034       .   A
C286       C287 0.032       .   A
C287       C288 0.032       .   A
C257       C258 0.032       .   A
C257       C262 0.031       .   A
C258       C259 0.031       .   A
C258      Br265 0.044       .   A
C259       C260 0.031       .   A
C259       O274 0.032       .   A
C260       C261 0.031       .   A
C260       C263 0.031       .   A
C261       C262 0.031       .   A
C261       H267 0.025       .   A
C262       H266 0.025       .   A
C263       C268 0.029       .   A
C264       H271 0.025       .   A
C264       H272 0.025       .   A
C264       H273 0.025       .   A
C264       O274 0.034       .   A
C268       C269 0.032       .   A
C269       C270 0.032       .   A
C239       C240 0.032       .   A
C239       C244 0.031       .   A
C240       C241 0.031       .   A
C240      Br247 0.044       .   A
C241       C242 0.031       .   A
C241       O256 0.032       .   A
C242       C243 0.031       .   A
C242       C245 0.031       .   A
C243       C244 0.031       .   A
C243       H249 0.025       .   A
C244       H248 0.025       .   A
C245       C250 0.029       .   A
C246       H253 0.025       .   A
C246       H254 0.025       .   A
C246       H255 0.025       .   A
C246       O256 0.034       .   A
C250       C251 0.032       .   A
C251       C252 0.032       .   A
C221       C222 0.032       .   A
C221       C226 0.031       .   A
C222       C223 0.031       .   A
C222      Br229 0.044       .   A
C223       C224 0.031       .   A
C223       O238 0.032       .   A
C224       C225 0.031       .   A
C224       C227 0.031       .   A
C225       C226 0.031       .   A
C225       H231 0.025       .   A
C226       H230 0.025       .   A
C227       C232 0.029       .   A
C228       H235 0.025       .   A
C228       H236 0.025       .   A
C228       H237 0.025       .   A
C228       O238 0.034       .   A
C232       C233 0.032       .   A
C233       C234 0.032       .   A
C203       C204 0.032       .   A
C203       C208 0.031       .   A
C204       C205 0.031       .   A
C204      Br211 0.044       .   A
C205       C206 0.031       .   A
C205       O220 0.032       .   A
C206       C207 0.031       .   A
C206       C209 0.031       .   A
C207       C208 0.031       .   A
C207       H213 0.025       .   A
C208       H212 0.025       .   A
C209       C214 0.029       .   A
C210       H217 0.025       .   A
C210       H218 0.025       .   A
C210       H219 0.025       .   A
C210       O220 0.034       .   A
C214       C215 0.032       .   A
C215       C216 0.032       .   A
C185       C186 0.032       .   A
C185       C190 0.031       .   A
C186       C187 0.031       .   A
C186      Br193 0.044       .   A
C187       C188 0.031       .   A
C187       O202 0.032       .   A
C188       C189 0.031       .   A
C188       C191 0.031       .   A
C189       C190 0.031       .   A
C189       H195 0.025       .   A
C190       H194 0.025       .   A
C191       C196 0.029       .   A
C192       H199 0.025       .   A
C192       H200 0.025       .   A
C192       H201 0.025       .   A
C192       O202 0.034       .   A
C196       C197 0.032       .   A
C197       C198 0.032       .   A
