data_pcu_v1-6c_Zn_1_Ch_1-85_fer_tobacco
_audit_creation_date              2021-02-03
_audit_creation_method            'tobacco_3.0'
_symmetry_space_group_name_H-M    'P1'
_symmetry_Int_Tables_number       1
_symmetry_cell_setting            triclinic
loop_
_symmetry_equiv_pos_as_xyz
  x,y,z
_cell_length_a                    42.2382539472252
_cell_length_b                    42.2382539472252
_cell_length_c                    42.2382539472252
_cell_angle_alpha                 90.0
_cell_angle_beta                  90.0
_cell_angle_gamma                 90.0
loop_
_atom_site_label
_atom_site_type_symbol
_atom_site_fract_x
_atom_site_fract_y
_atom_site_fract_z
_atom_site_charge
Zn1       Zn   -0.0265446579   -0.0265446579    0.0265446579          1.4972
Zn2       Zn    0.0265446579    0.0265446579    0.0265446579          1.4936
Zn3       Zn    0.0265446579   -0.0265446579   -0.0265446579          1.4911
Zn4       Zn   -0.0265446579    0.0265446579   -0.0265446579          1.4948
O5         O    0.0000000000    0.0000000000    0.0000000000         -2.1879
O6         O   -0.0195083822   -0.0195083822    0.0709451675         -1.0943
O7         O    0.0709451675    0.0195083822    0.0195083822         -1.0925
O8         O    0.0195083822   -0.0709451675   -0.0195083822         -1.0876
O9         O    0.0195083822    0.0195083822    0.0709451675         -1.0944
O10        O   -0.0195083822   -0.0709451675    0.0195083822         -1.0904
O11        O    0.0709451675   -0.0195083822   -0.0195083822         -1.0962
O12        O   -0.0195083822    0.0195083822   -0.0709451675         -1.0901
O13        O    0.0195083822    0.0709451675    0.0195083822         -1.0977
O14        O    0.0195083822   -0.0195083822   -0.0709451675         -1.0916
O15        O   -0.0195083822    0.0709451675   -0.0195083822         -1.0963
O16        O   -0.0709451675    0.0195083822   -0.0195083822         -1.0954
O17        O   -0.0709451675   -0.0195083822    0.0195083822         -1.0933
C18        C   -0.0000000000   -0.0000000000    0.0848235821          0.4246
C19        C    0.0848235821   -0.0000000000   -0.0000000000          0.4295
C20        C   -0.0000000000   -0.0848235821    0.0000000000          0.4191
C21        C    0.0000000000    0.0000000000   -0.0848235821          0.4229
C22        C    0.0000000000    0.0848235821   -0.0000000000          0.4343
C23        C   -0.0848235821    0.0000000000    0.0000000000          0.4248
Zn24      Zn    0.9734553421    0.0265446579    0.4734553421          1.4972
Zn25      Zn    1.0265446579   -0.0265446579    0.4734553421          1.4936
Zn26      Zn    1.0265446579    0.0265446579    0.5265446579          1.4911
Zn27      Zn    0.9734553421   -0.0265446579    0.5265446579          1.4948
O28        O    1.0000000000    0.0000000000    0.5000000000         -2.1879
O29        O    0.9804916178    0.0195083822    0.4290548325         -1.0943
O30        O    1.0709451675   -0.0195083822    0.4804916178         -1.0925
O31        O    1.0195083822    0.0709451675    0.5195083822         -1.0876
O32        O    1.0195083822   -0.0195083822    0.4290548325         -1.0944
O33        O    0.9804916178    0.0709451675    0.4804916178         -1.0904
O34        O    1.0709451675    0.0195083822    0.5195083822         -1.0962
O35        O    0.9804916178   -0.0195083822    0.5709451675         -1.0901
O36        O    1.0195083822   -0.0709451675    0.4804916178         -1.0977
O37        O    1.0195083822    0.0195083822    0.5709451675         -1.0916
O38        O    0.9804916178   -0.0709451675    0.5195083822         -1.0963
O39        O    0.9290548325   -0.0195083822    0.5195083822         -1.0954
O40        O    0.9290548325    0.0195083822    0.4804916178         -1.0933
C41        C    1.0000000000    0.0000000000    0.4151764179          0.4246
C42        C    1.0848235821    0.0000000000    0.5000000000          0.4295
C43        C    1.0000000000    0.0848235821    0.5000000000          0.4191
C44        C    1.0000000000    0.0000000000    0.5848235821          0.4229
C45        C    1.0000000000   -0.0848235821    0.5000000000          0.4343
C46        C    0.9151764179    0.0000000000    0.5000000000          0.4248
Zn47      Zn    0.9734553421    0.5265446579   -0.0265446579          1.4972
Zn48      Zn    1.0265446579    0.4734553421   -0.0265446579          1.4936
Zn49      Zn    1.0265446579    0.5265446579    0.0265446579          1.4911
Zn50      Zn    0.9734553421    0.4734553421    0.0265446579          1.4948
O51        O    1.0000000000    0.5000000000    0.0000000000         -2.1879
O52        O    0.9804916178    0.5195083822   -0.0709451675         -1.0943
O53        O    1.0709451675    0.4804916178   -0.0195083822         -1.0925
O54        O    1.0195083822    0.5709451675    0.0195083822         -1.0876
O55        O    1.0195083822    0.4804916178   -0.0709451675         -1.0944
O56        O    0.9804916178    0.5709451675   -0.0195083822         -1.0904
O57        O    1.0709451675    0.5195083822    0.0195083822         -1.0962
O58        O    0.9804916178    0.4804916178    0.0709451675         -1.0901
O59        O    1.0195083822    0.4290548325   -0.0195083822         -1.0977
O60        O    1.0195083822    0.5195083822    0.0709451675         -1.0916
O61        O    0.9804916178    0.4290548325    0.0195083822         -1.0963
O62        O    0.9290548325    0.4804916178    0.0195083822         -1.0954
O63        O    0.9290548325    0.5195083822   -0.0195083822         -1.0933
C64        C    1.0000000000    0.5000000000   -0.0848235821          0.4246
C65        C    1.0848235821    0.5000000000    0.0000000000          0.4295
C66        C    1.0000000000    0.5848235821    0.0000000000          0.4191
C67        C    1.0000000000    0.5000000000    0.0848235821          0.4229
C68        C    1.0000000000    0.4151764179    0.0000000000          0.4343
C69        C    0.9151764179    0.5000000000    0.0000000000          0.4248
Zn70      Zn    0.9734553421    0.4734553421    0.5265446579          1.4972
Zn71      Zn    1.0265446579    0.4734553421    0.4734553421          1.4936
Zn72      Zn    0.9734553421    0.5265446579    0.4734553421          1.4911
Zn73      Zn    1.0265446579    0.5265446579    0.5265446579          1.4948
O74        O    1.0000000000    0.5000000000    0.5000000000         -2.1879
O75        O    0.9804916178    0.4290548325    0.5195083822         -1.0943
O76        O    1.0195083822    0.4804916178    0.4290548325         -1.0925
O77        O    0.9290548325    0.5195083822    0.4804916178         -1.0876
O78        O    1.0195083822    0.4290548325    0.4804916178         -1.0944
O79        O    0.9290548325    0.4804916178    0.5195083822         -1.0904
O80        O    0.9804916178    0.5195083822    0.4290548325         -1.0962
O81        O    1.0195083822    0.5709451675    0.5195083822         -1.0901
O82        O    1.0709451675    0.4804916178    0.4804916178         -1.0977
O83        O    0.9804916178    0.5709451675    0.4804916178         -1.0916
O84        O    1.0709451675    0.5195083822    0.5195083822         -1.0963
O85        O    1.0195083822    0.5195083822    0.5709451675         -1.0954
O86        O    0.9804916178    0.4804916178    0.5709451675         -1.0933
C87        C    1.0000000000    0.4151764179    0.5000000000          0.4246
C88        C    1.0000000000    0.5000000000    0.4151764179          0.4295
C89        C    0.9151764179    0.5000000000    0.5000000000          0.4191
C90        C    1.0000000000    0.5848235821    0.5000000000          0.4229
C91        C    1.0848235821    0.5000000000    0.5000000000          0.4343
C92        C    1.0000000000    0.5000000000    0.5848235821          0.4248
Zn93      Zn    0.4734553421    0.9734553421   -0.0265446579          1.4972
Zn94      Zn    0.4734553421    1.0265446579    0.0265446579          1.4936
Zn95      Zn    0.5265446579    0.9734553421    0.0265446579          1.4911
Zn96      Zn    0.5265446579    1.0265446579   -0.0265446579          1.4948
O97        O    0.5000000000    1.0000000000    0.0000000000         -2.1879
O98        O    0.4290548325    0.9804916178   -0.0195083822         -1.0943
O99        O    0.4804916178    1.0195083822    0.0709451675         -1.0925
O100       O    0.5195083822    0.9290548325    0.0195083822         -1.0876
O101       O    0.4290548325    1.0195083822    0.0195083822         -1.0944
O102       O    0.4804916178    0.9290548325   -0.0195083822         -1.0904
O103       O    0.5195083822    0.9804916178    0.0709451675         -1.0962
O104       O    0.5709451675    1.0195083822   -0.0195083822         -1.0901
O105       O    0.4804916178    1.0709451675    0.0195083822         -1.0977
O106       O    0.5709451675    0.9804916178    0.0195083822         -1.0916
O107       O    0.5195083822    1.0709451675   -0.0195083822         -1.0963
O108       O    0.5195083822    1.0195083822   -0.0709451675         -1.0954
O109       O    0.4804916178    0.9804916178   -0.0709451675         -1.0933
C110       C    0.4151764179    1.0000000000    0.0000000000          0.4246
C111       C    0.5000000000    1.0000000000    0.0848235821          0.4295
C112       C    0.5000000000    0.9151764179    0.0000000000          0.4191
C113       C    0.5848235821    1.0000000000    0.0000000000          0.4229
C114       C    0.5000000000    1.0848235821    0.0000000000          0.4343
C115       C    0.5000000000    1.0000000000   -0.0848235821          0.4248
Zn116     Zn    0.4734553421    1.0265446579    0.5265446579          1.4972
Zn117     Zn    0.4734553421    0.9734553421    0.4734553421          1.4936
Zn118     Zn    0.5265446579    1.0265446579    0.4734553421          1.4911
Zn119     Zn    0.5265446579    0.9734553421    0.5265446579          1.4948
O120       O    0.5000000000    1.0000000000    0.5000000000         -2.1879
O121       O    0.4290548325    1.0195083822    0.5195083822         -1.0943
O122       O    0.4804916178    0.9804916178    0.4290548325         -1.0925
O123       O    0.5195083822    1.0709451675    0.4804916178         -1.0876
O124       O    0.4290548325    0.9804916178    0.4804916178         -1.0944
O125       O    0.4804916178    1.0709451675    0.5195083822         -1.0904
O126       O    0.5195083822    1.0195083822    0.4290548325         -1.0962
O127       O    0.5709451675    0.9804916178    0.5195083822         -1.0901
O128       O    0.4804916178    0.9290548325    0.4804916178         -1.0977
O129       O    0.5709451675    1.0195083822    0.4804916178         -1.0916
O130       O    0.5195083822    0.9290548325    0.5195083822         -1.0963
O131       O    0.5195083822    0.9804916178    0.5709451675         -1.0954
O132       O    0.4804916178    1.0195083822    0.5709451675         -1.0933
C133       C    0.4151764179    1.0000000000    0.5000000000          0.4246
C134       C    0.5000000000    1.0000000000    0.4151764179          0.4295
C135       C    0.5000000000    1.0848235821    0.5000000000          0.4191
C136       C    0.5848235821    1.0000000000    0.5000000000          0.4229
C137       C    0.5000000000    0.9151764179    0.5000000000          0.4343
C138       C    0.5000000000    1.0000000000    0.5848235821          0.4248
Zn139     Zn    0.4734553421    0.5265446579   -0.0265446579          1.4972
Zn140     Zn    0.5265446579    0.5265446579    0.0265446579          1.4936
Zn141     Zn    0.4734553421    0.4734553421    0.0265446579          1.4911
Zn142     Zn    0.5265446579    0.4734553421   -0.0265446579          1.4948
O143       O    0.5000000000    0.5000000000    0.0000000000         -2.1879
O144       O    0.4804916178    0.5709451675   -0.0195083822         -1.0943
O145       O    0.5195083822    0.5195083822    0.0709451675         -1.0925
O146       O    0.4290548325    0.4804916178    0.0195083822         -1.0876
O147       O    0.5195083822    0.5709451675    0.0195083822         -1.0944
O148       O    0.4290548325    0.5195083822   -0.0195083822         -1.0904
O149       O    0.4804916178    0.4804916178    0.0709451675         -1.0962
O150       O    0.5195083822    0.4290548325   -0.0195083822         -1.0901
O151       O    0.5709451675    0.5195083822    0.0195083822         -1.0977
O152       O    0.4804916178    0.4290548325    0.0195083822         -1.0916
O153       O    0.5709451675    0.4804916178   -0.0195083822         -1.0963
O154       O    0.5195083822    0.4804916178   -0.0709451675         -1.0954
O155       O    0.4804916178    0.5195083822   -0.0709451675         -1.0933
C156       C    0.5000000000    0.5848235821    0.0000000000          0.4246
C157       C    0.5000000000    0.5000000000    0.0848235821          0.4295
C158       C    0.4151764179    0.5000000000    0.0000000000          0.4191
C159       C    0.5000000000    0.4151764179    0.0000000000          0.4229
C160       C    0.5848235821    0.5000000000    0.0000000000          0.4343
C161       C    0.5000000000    0.5000000000   -0.0848235821          0.4248
Zn162     Zn    0.4734553421    0.4734553421    0.4734553421          1.4972
Zn163     Zn    0.4734553421    0.5265446579    0.5265446579          1.4936
Zn164     Zn    0.5265446579    0.4734553421    0.5265446579          1.4911
Zn165     Zn    0.5265446579    0.5265446579    0.4734553421          1.4948
O166       O    0.5000000000    0.5000000000    0.5000000000         -2.1879
O167       O    0.4290548325    0.4804916178    0.4804916178         -1.0943
O168       O    0.4804916178    0.5195083822    0.5709451675         -1.0925
O169       O    0.5195083822    0.4290548325    0.5195083822         -1.0876
O170       O    0.4290548325    0.5195083822    0.5195083822         -1.0944
O171       O    0.4804916178    0.4290548325    0.4804916178         -1.0904
O172       O    0.5195083822    0.4804916178    0.5709451675         -1.0962
O173       O    0.5709451675    0.5195083822    0.4804916178         -1.0901
O174       O    0.4804916178    0.5709451675    0.5195083822         -1.0977
O175       O    0.5709451675    0.4804916178    0.5195083822         -1.0916
O176       O    0.5195083822    0.5709451675    0.4804916178         -1.0963
O177       O    0.5195083822    0.5195083822    0.4290548325         -1.0954
O178       O    0.4804916178    0.4804916178    0.4290548325         -1.0933
C179       C    0.4151764179    0.5000000000    0.5000000000          0.4246
C180       C    0.5000000000    0.5000000000    0.5848235821          0.4295
C181       C    0.5000000000    0.4151764179    0.5000000000          0.4191
C182       C    0.5848235821    0.5000000000    0.5000000000          0.4229
C183       C    0.5000000000    0.5848235821    0.5000000000          0.4343
C184       C    0.5000000000    0.5000000000    0.4151764179          0.4248
C760       C    0.5000000000    0.5000000000   -0.1212834225          0.6461
C761       C    0.4887530375    0.4780310867   -0.1411560730          0.6378
C762       C    0.4974115325    0.4750780697   -0.1711403188          0.6324
C763       C    0.5132632440    0.4992548334   -0.1858418666          0.6413
C764       C    0.5273243276    0.5206059049   -0.1653236008          0.6477
C765       C    0.5204059580    0.5206047745   -0.1341482775            0.65
C766       C    0.5096027934    0.4973766898   -0.2184563659          0.6436
H767       H    0.4863693987    0.4562267972   -0.1849857175          0.6258
O768       O    0.4628114679    0.4627286785   -0.1363921016           0.641
H769       H    0.5309634573    0.5388985820   -0.1194053785         -0.3437
H770       H    0.5431038910    0.5384290919   -0.1748478412          -0.348
C771       C    0.4817452214    0.4900160144   -0.2321697192         -0.3457
C772       C    0.4757503011    0.4825643702   -0.2669651501         -0.3461
H773       H    0.4606309038    0.4860558502   -0.2178956097         -0.3377
H774       H    0.5303261676    0.5005783923   -0.2331981394          0.6352
C775       C    0.4952328892    0.5016520292   -0.2913004798         -0.3422
N776       N    0.4873412612    0.4907548433   -0.3236071428          -0.344
N777       N    0.4700751538    0.4713639239   -0.3210716892         -0.3483
N778       N    0.4678890892    0.4714824208   -0.2893539193         -0.3485
N779       N    0.5012849264    0.5039138994   -0.3486686087         -0.3412
H780       H    0.5205385963    0.4979111792   -0.2870965013          0.6412
H781       H    0.4899244308    0.5268931456   -0.2889010214         -0.3217
H782       H    0.4503177506    0.4845552086   -0.2715934702         -0.3306
N783       N    0.5000000000    0.5000000000   -0.3787165775         -0.3419
H784       H    0.4540747424    0.4763927192   -0.1529644473         -0.3439
C735       C    0.5000000000    0.5000000000    0.1212834225          0.6461
C736       C    0.4776149591    0.5103940975    0.1411560730          0.6378
C737       C    0.4826221719    0.5180503148    0.1711403188          0.6324
C738       C    0.5099954195    0.5087498860    0.1858418666          0.6413
C739       C    0.5342182987    0.5005746522    0.1653236008          0.6477
C740       C    0.5287645829    0.4963177963    0.1341482775            0.65
C741       C    0.5059544138    0.5079774905    0.2184563659          0.6436
H742       H    0.4623172541    0.5261131622    0.1849857175          0.6258
O743       O    0.4477504541    0.5064902444    0.1363921016           0.641
H744       H    0.5483444358    0.4883960829    0.1194053785         -0.3437
H745       H    0.5576245211    0.4962376751    0.1748478412          -0.348
C746       C    0.4794672780    0.4966348499    0.2321697192         -0.3457
C747       C    0.4701561771    0.4988187622    0.2669651501         -0.3461
H748       H    0.4603879017    0.4867619217    0.2178956097         -0.3377
H749       H    0.5242588733    0.5182076369    0.2331981394          0.6352
C750       C    0.4972592922    0.4957640742    0.2913004798         -0.3422
N751       N    0.4843327400    0.4994964594    0.3236071428          -0.344
N752       N    0.4587900081    0.5041542560    0.3210716892         -0.3483
N753       N    0.4571398904    0.5027154957    0.2893539193         -0.3485
N754       N    0.5034214885    0.4977058640    0.3486686087         -0.3412
H755       H    0.5149028912    0.5142863902    0.2870965013          0.6412
H756       H    0.5086092432    0.4726022025    0.2889010214         -0.3217
H757       H    0.4513355977    0.4815977329    0.2715934702         -0.3306
N758       N    0.5000000000    0.5000000000    0.3787165775         -0.3419
H759       H    0.4492734266    0.4903435130    0.1529644473         -0.3439
C710       C    0.5000000000    0.8787165775    0.5000000000          0.6461
C711       C    0.4827299088    0.8588439270    0.4823684581          0.6378
C712       C    0.4771842428    0.8288596812    0.4896441322          0.6324
C713       C    0.4950884665    0.8141581334    0.5123428422          0.6413
C714       C    0.5108804341    0.8346763992    0.5324474706          0.6477
C715       C    0.5130726713    0.8658517225    0.5258856160            0.65
C716       C    0.4944676653    0.7815436341    0.5082757882          0.6436
H717       H    0.4628060376    0.8150142825    0.4731952292          0.6258
O718       O    0.4764410273    0.8636078984    0.4529137692           0.641
H719       H    0.5270758096    0.8805946215    0.5416981522         -0.3437
H720       H    0.5227816934    0.8251521588    0.5530634994          -0.348
C721       C    0.4963182788    0.7678302808    0.4795216739         -0.3457
C722       C    0.4911515672    0.7330348499    0.4714736206         -0.3461
H723       H    0.4992562004    0.7821043903    0.4582410272         -0.3377
H724       H    0.4909343458    0.7668018606    0.5289452050          0.6352
C725       C    0.5030781142    0.7086995202    0.4960025309         -0.3422
N726       N    0.4952449012    0.6763928572    0.4850632793          -0.344
N727       N    0.4823280531    0.6789283108    0.4625403742         -0.3483
N728       N    0.4831334787    0.7106460807    0.4605046411         -0.3485
N729       N    0.5033046507    0.6513313913    0.5024594568         -0.3412
H730       H    0.4915076401    0.7129034987    0.5188169321          0.6412
H731       H    0.5287001308    0.7110989786    0.4989700142         -0.3217
H732       H    0.5011025141    0.7284065298    0.4479841183         -0.3306
N733       N    0.5000000000    0.6212834225    0.5000000000         -0.3419
H734       H    0.4921700066    0.8470355527    0.4489595828         -0.3439
C685       C    0.5000000000    1.1212834225    0.5000000000          0.6461
C686       C    0.4772076830    1.1411560730    0.4905322863          0.6378
C687       C    0.4818968298    1.1711403188    0.4826772403          0.6324
C688       C    0.5096283269    1.1858418666    0.4908477196          0.6413
C689       C    0.5341659778    1.1653236008    0.4980230949          0.6477
C690       C    0.5288913508    1.1341482775    0.5024999407            0.65
C691       C    0.5056223814    1.2184563659    0.4917851217          0.6436
H692       H    0.4612784540    1.1849857175    0.4754535450          0.6258
O693       O    0.4475283155    1.1363921016    0.4956571154           0.641
H694       H    0.5487794856    1.1194053785    0.5096123438         -0.3437
H695       H    0.5577303139    1.1748478412    0.5013969179          -0.348
C696       C    0.4796224878    1.2321697192    0.5042040344         -0.3457
C697       C    0.4702296871    1.2669651501    0.5024036547         -0.3461
H698       H    0.4609638778    1.2178956097    0.5148507984         -0.3377
H699       H    0.5234920823    1.2331981394    0.4808132065          0.6352
C700       C    0.4974352425    1.2913004798    0.5043447169         -0.3422
N701       N    0.4843665518    1.3236071428    0.5011453768          -0.344
N702       N    0.4586543506    1.3210716892    0.4975385876         -0.3483
N703       N    0.4570646001    1.2893539193    0.4990437830         -0.3485
N704       N    0.5035126577    1.3486686087    0.5021519480         -0.3412
H705       H    0.5143047114    1.2870965013    0.4851146937          0.6412
H706       H    0.5097251444    1.2889010214    0.5270218420         -0.3217
H707       H    0.4521308826    1.2715934702    0.5203817340         -0.3306
N708       N    0.5000000000    1.3787165775    0.5000000000         -0.3419
H709       H    0.4497119227    1.1529644473    0.5117278416         -0.3439
C660       C    0.5000000000    0.8787165775    0.0000000000          0.6461
C661       C    0.5233737567    0.8588439270   -0.0079243180          0.6378
C662       C    0.5192197037    0.8288596812   -0.0160750043          0.6324
C663       C    0.4910044351    0.8141581334   -0.0097749029          0.6413
C664       C    0.4660423424    0.8346763992   -0.0042543725          0.6477
C665       C    0.4710061920    0.8658517225    0.0005647598            0.65
C666       C    0.4949388287    0.7815436341   -0.0085720443          0.6436
H667       H    0.5402744994    0.8150142825   -0.0219055079          0.6258
O668       O    0.5526445778    0.8636078984   -0.0008287025           0.641
H669       H    0.4506874398    0.8805946215    0.0063329910         -0.3437
H670       H    0.4423052899    0.8251521588   -0.0024619004          -0.348
C671       C    0.5200512333    0.7678302808    0.0055556233         -0.3457
C672       C    0.5295433056    0.7330348499    0.0043865910         -0.3461
H673       H    0.5379571047    0.7821043903    0.0174247884         -0.3377
H674       H    0.4778418211    0.7668018606   -0.0207129449          0.6352
C675       C    0.5022688554    0.7086995202    0.0045063113         -0.3422
N676       N    0.5155220439    0.6763928572    0.0021869480          -0.344
N677       N    0.5414177252    0.6789283108    0.0003054817         -0.3483
N678       N    0.5429033969    0.7106460807    0.0019134927         -0.3485
N679       N    0.4963514609    0.6513313913    0.0019125393         -0.3412
H680       H    0.4867213901    0.7129034987   -0.0158074549          0.6412
H681       H    0.4884918321    0.7110989786    0.0263119830         -0.3217
H682       H    0.5464009766    0.7284065298    0.0235333136         -0.3306
N683       N    0.5000000000    0.6212834225    0.0000000000         -0.3419
H684       H    0.5493925126    0.8470355527    0.0150603016         -0.3439
C635       C    0.5000000000    1.3787165775    0.0000000000          0.6461
C636       C    0.4816945939    1.3588439270   -0.0165541362          0.6378
C637       C    0.4765993758    1.3288596812   -0.0089562025          0.6324
C638       C    0.4958443899    1.3141581334    0.0126174411          0.6413
C639       C    0.5128240392    1.3346763992    0.0317295794          0.6477
C640       C    0.5146151708    1.3658517225    0.0250470884            0.65
C641       C    0.4949786103    1.2815436341    0.0085954083          0.6436
H642       H    0.4612521226    1.3150142825   -0.0245048684          0.6258
O643       O    0.4736347994    1.3636078984   -0.0455742747           0.641
H644       H    0.5295495350    1.3805946215    0.0399832509         -0.3437
H645       H    0.5259510579    1.3251521588    0.0515876256          -0.348
C646       C    0.4950857887    1.2678302808   -0.0202179978         -0.3457
C647       C    0.4894415213    1.2330348499   -0.0279386402         -0.3461
H648       H    0.4967305362    1.2821043903   -0.0416374309         -0.3377
H649       H    0.4927025677    1.2668018606    0.0294407619          0.6352
C650       C    0.5028305678    1.2086995202   -0.0041764138         -0.3422
N651       N    0.4943497262    1.1763928572   -0.0146215935          -0.344
N652       N    0.4800935861    1.1789283108   -0.0363215633         -0.3483
N653       N    0.4807743441    1.2106460807   -0.0384023056         -0.3485
N654       N    0.5034474273    1.1513313913    0.0022549698         -0.3412
H655       H    0.4926619030    1.2129034987    0.0192963583          0.6412
H656       H    0.5285852032    1.2110989786   -0.0027648749         -0.3217
H657       H    0.4979527735    1.2284065298   -0.0519872710         -0.3306
N658       N    0.5000000000    1.1212834225    0.0000000000         -0.3419
H659       H    0.4890956664    1.3470355527   -0.0504730472         -0.3439
C610       C    0.5000000000    1.0000000000   -0.3787165775          0.6461
C611       C    0.5224069574    0.9896532334   -0.3588439270          0.6378
C612       C    0.5174159361    0.9819864511   -0.3288596812          0.6324
C613       C    0.4900230945    0.9912290097   -0.3141581334          0.6413
C614       C    0.4657829921    0.9993530334   -0.3346763992          0.6477
C615       C    0.4712276995    1.0036214056   -0.3658517225            0.65
C616       C    0.4940624588    0.9920099435   -0.2815436341          0.6436
H617       H    0.5377378483    0.9739665334   -0.3150142825          0.6258
O618       O    0.5522631455    0.9936201922   -0.3636078984           0.641
H619       H    0.4516311489    1.0115017219   -0.3805946215         -0.3437
H620       H    0.4423676564    1.0036405351   -0.3251521588          -0.348
C621       C    0.5205255644    1.0034085357   -0.2678302808         -0.3457
C622       C    0.5298412598    1.0012443059   -0.2330348499         -0.3461
H623       H    0.5395840330    1.0133217634   -0.2821043903         -0.3377
H624       H    0.4757796602    0.9817411360   -0.2668018606          0.6352
C625       C    0.5027317496    1.0042417084   -0.2086995202         -0.3422
N626       N    0.5156661609    1.0005366500   -0.1763928572          -0.344
N627       N    0.5412186793    0.9959328448   -0.1789283108         -0.3483
N628       N    0.5428657528    0.9973750892   -0.2106460807         -0.3485
N629       N    0.4965736708    1.0022869001   -0.1513313913         -0.3412
H630       H    0.4851273344    0.9856821465   -0.2129034987          0.6412
H631       H    0.4913328746    1.0273795419   -0.2110989786         -0.3217
H632       H    0.5486254030    1.0185050715   -0.2284065298         -0.3306
N633       N    0.5000000000    1.0000000000   -0.1212834225         -0.3419
H634       H    0.5507060525    1.0097636690   -0.3470355527         -0.3439
C585       C    0.5000000000    1.0000000000    0.1212834225          0.6461
C586       C    0.5223850409    0.9896059025    0.1411560730          0.6378
C587       C    0.5173778281    0.9819496852    0.1711403188          0.6324
C588       C    0.4900045805    0.9912501140    0.1858418666          0.6413
C589       C    0.4657817013    0.9994253478    0.1653236008          0.6477
C590       C    0.4712354171    1.0036822037    0.1341482775            0.65
C591       C    0.4940455862    0.9920225095    0.2184563659          0.6436
H592       H    0.5376827459    0.9738868378    0.1849857175          0.6258
O593       O    0.5522495459    0.9935097556    0.1363921016           0.641
H594       H    0.4516555642    1.0116039171    0.1194053785         -0.3437
H595       H    0.4423754789    1.0037623249    0.1748478412          -0.348
C596       C    0.5205327220    1.0033651501    0.2321697192         -0.3457
C597       C    0.5298438229    1.0011812378    0.2669651501         -0.3461
H598       H    0.5396120983    1.0132380783    0.2178956097         -0.3377
H599       H    0.4757411267    0.9817923631    0.2331981394          0.6352
C600       C    0.5027407078    1.0042359258    0.2913004798         -0.3422
N601       N    0.5156672600    1.0005035406    0.3236071428          -0.344
N602       N    0.5412099919    0.9958457440    0.3210716892         -0.3483
N603       N    0.5428601096    0.9972845043    0.2893539193         -0.3485
N604       N    0.4965785115    1.0022941360    0.3486686087         -0.3412
H605       H    0.4850971088    0.9857136098    0.2870965013          0.6412
H606       H    0.4913907568    1.0273977975    0.2889010214         -0.3217
H607       H    0.5486644023    1.0184022671    0.2715934702         -0.3306
N608       N    0.5000000000    1.0000000000    0.3787165775         -0.3419
H609       H    0.5507265734    1.0096564870    0.1529644473         -0.3439
C560       C    0.8787165775    0.5000000000    0.5000000000          0.6461
C561       C    0.8588439270    0.4764069959    0.5072455140          0.6378
C562       C    0.8288596812    0.4750083978    0.4982048411          0.6324
C563       C    0.8141581334    0.5015780821    0.4868099063          0.6413
C564       C    0.8346763992    0.5250532161    0.4766856577          0.6477
C565       C    0.8658517225    0.5238462009    0.4834979226            0.65
C566       C    0.7815436341    0.4990906569    0.4900869534          0.6436
H567       H    0.8150142825    0.4545210117    0.5057920804          0.6258
O568       O    0.8636078984    0.4568171104    0.5301226886           0.641
H569       H    0.8805946215    0.5437001819    0.4762907302         -0.3437
H570       H    0.8251521588    0.5453540097    0.4642543103          -0.348
C571       C    0.7678302808    0.4869869631    0.5162350787         -0.3457
C572       C    0.7330348499    0.4786044491    0.5208393735         -0.3461
H573       H    0.7821043903    0.4794071037    0.5363359006         -0.3377
H574       H    0.7668018606    0.5058555222    0.4702388872          0.6352
C575       C    0.7086995202    0.5007958113    0.5049820910         -0.3422
N576       N    0.6763928572    0.4886898961    0.5108534852          -0.344
N577       N    0.6789283108    0.4665862582    0.5244753577         -0.3483
N578       N    0.7106460807    0.4663219005    0.5266486121         -0.3485
N579       N    0.6513313913    0.5040779530    0.4994169533         -0.3412
H580       H    0.7129034987    0.5015231226    0.4794117216          0.6412
H581       H    0.7110989786    0.5247252447    0.5146089238         -0.3217
H582       H    0.7284065298    0.4761318064    0.5462296097         -0.3306
N583       N    0.6212834225    0.5000000000    0.5000000000         -0.3419
H584       H    0.8470355527    0.4687491300    0.5411073730         -0.3439
C535       C    1.1212834225    0.5000000000    0.5000000000          0.6461
C536       C    1.1411560730    0.5072455140    0.4764069959          0.6378
C537       C    1.1711403188    0.4982048411    0.4750083978          0.6324
C538       C    1.1858418666    0.4868099063    0.5015780821          0.6413
C539       C    1.1653236008    0.4766856577    0.5250532161          0.6477
C540       C    1.1341482775    0.4834979226    0.5238462009            0.65
C541       C    1.2184563659    0.4900869534    0.4990906569          0.6436
H542       H    1.1849857175    0.5057920804    0.4545210117          0.6258
O543       O    1.1363921016    0.5301226886    0.4568171104           0.641
H544       H    1.1194053785    0.4762907302    0.5437001819         -0.3437
H545       H    1.1748478412    0.4642543103    0.5453540097          -0.348
C546       C    1.2321697192    0.5162350787    0.4869869631         -0.3457
C547       C    1.2669651501    0.5208393735    0.4786044491         -0.3461
H548       H    1.2178956097    0.5363359006    0.4794071037         -0.3377
H549       H    1.2331981394    0.4702388872    0.5058555222          0.6352
C550       C    1.2913004798    0.5049820910    0.5007958113         -0.3422
N551       N    1.3236071428    0.5108534852    0.4886898961          -0.344
N552       N    1.3210716892    0.5244753577    0.4665862582         -0.3483
N553       N    1.2893539193    0.5266486121    0.4663219005         -0.3485
N554       N    1.3486686087    0.4994169533    0.5040779530         -0.3412
H555       H    1.2870965013    0.4794117216    0.5015231226          0.6412
H556       H    1.2889010214    0.5146089238    0.5247252447         -0.3217
H557       H    1.2715934702    0.5462296097    0.4761318064         -0.3306
N558       N    1.3787165775    0.5000000000    0.5000000000         -0.3419
H559       H    1.1529644473    0.5411073730    0.4687491300         -0.3439
C510       C    0.6212834225    0.5000000000    0.0000000000          0.6461
C511       C    0.6411560730    0.5168346528   -0.0180477639          0.6378
C512       C    0.6711403188    0.5093162530   -0.0232596261          0.6324
C513       C    0.6858418666    0.4874481905   -0.0043498269          0.6413
C514       C    0.6653236008    0.4680762991    0.0123328632          0.6477
C515       C    0.6341482775    0.4747303538    0.0142269053            0.65
C516       C    0.7184563659    0.4914831050   -0.0051534356          0.6436
H517       H    0.6849857175    0.5250999053   -0.0383651057          0.6258
O518       O    0.6363921016    0.5459757139   -0.0256587617           0.641
H519       H    0.6194053785    0.4595655037    0.0289289971         -0.3437
H520       H    0.6748478412    0.4480180423    0.0251518706          -0.348
C521       C    0.7321697192    0.5202914261   -0.0046016233         -0.3457
C522       C    0.7669651501    0.5280982510   -0.0101260740         -0.3461
H523       H    0.7178956097    0.5416829270   -0.0026265282         -0.3377
H524       H    0.7331981394    0.4706753575   -0.0077508914          0.6352
C525       C    0.7913004798    0.5041322353    0.0028946809         -0.3422
N526       N    0.8236071428    0.5147070470   -0.0054239615          -0.344
N527       N    0.8210716892    0.5366244327   -0.0193435313         -0.3483
N528       N    0.7893539193    0.5386944218   -0.0186307445         -0.3485
N529       N    0.8486686087    0.4976920982    0.0034122183         -0.3412
H530       H    0.7870965013    0.4808191806   -0.0076350034          0.6412
H531       H    0.7889010214    0.5023234206    0.0286244667         -0.3217
H532       H    0.7715934702    0.5520126731   -0.0012447184         -0.3306
N533       N    0.8787165775    0.5000000000    0.0000000000         -0.3419
H534       H    0.6529644473    0.5506353119   -0.0101241382         -0.3439
C485       C    1.1212834225    0.5000000000    0.0000000000          0.6461
C486       C    1.1411560730    0.5015878596    0.0246293731          0.6378
C487       C    1.1711403188    0.5105372675    0.0227325487          0.6324
C488       C    1.1858418666    0.5117742708   -0.0061510537          0.6413
C489       C    1.1653236008    0.5129200075   -0.0316906232          0.6477
C490       C    1.1341482775    0.5069779158   -0.0281472653            0.65
C491       C    1.2184563659    0.5095917132   -0.0026635382          0.6436
H492       H    1.1849857175    0.5107047547    0.0445790848          0.6258
O493       O    1.1363921016    0.4871400698    0.0510564444           0.641
H494       H    1.1194053785    0.5066795789   -0.0492668103         -0.3437
H495       H    1.1748478412    0.5173482359   -0.0550797534          -0.348
C496       C    1.2321697192    0.4894317595    0.0179228681         -0.3457
C497       C    1.2669651501    0.4880977415    0.0273931621         -0.3461
H498       H    1.2178956097    0.4733229065    0.0321356147         -0.3377
H499       H    1.2331981394    0.5257531098   -0.0160246158          0.6352
C500       C    1.2913004798    0.4950593134    0.0010218428         -0.3422
N501       N    1.3236071428    0.4938602888    0.0144229171          -0.344
N502       N    1.3210716892    0.4889578841    0.0399198316         -0.3483
N503       N    1.2893539193    0.4870194472    0.0409373688         -0.3485
N504       N    1.3486686087    0.4990996937   -0.0040198374         -0.3412
H505       H    1.2870965013    0.5187115650   -0.0087220667          0.6412
H506       H    1.2889010214    0.4775753935   -0.0179414437         -0.3217
H507       H    1.2715934702    0.4652325874    0.0387052258         -0.3306
N508       N    1.3787165775    0.5000000000    0.0000000000         -0.3419
H509       H    1.1529644473    0.4726391388    0.0437928791         -0.3439
C460       C    1.0000000000    0.5000000000   -0.1212834225          0.6461
C461       C    1.0223850409    0.5103940975   -0.1411560730          0.6378
C462       C    1.0173778281    0.5180503148   -0.1711403188          0.6324
C463       C    0.9900045805    0.5087498860   -0.1858418666          0.6413
C464       C    0.9657817013    0.5005746522   -0.1653236008          0.6477
C465       C    0.9712354171    0.4963177963   -0.1341482775            0.65
C466       C    0.9940455862    0.5079774905   -0.2184563659          0.6436
H467       H    1.0376827459    0.5261131622   -0.1849857175          0.6258
O468       O    1.0522495459    0.5064902444   -0.1363921016           0.641
H469       H    0.9516555642    0.4883960829   -0.1194053785         -0.3437
H470       H    0.9423754789    0.4962376751   -0.1748478412          -0.348
C471       C    1.0205327220    0.4966348499   -0.2321697192         -0.3457
C472       C    1.0298438229    0.4988187622   -0.2669651501         -0.3461
H473       H    1.0396120983    0.4867619217   -0.2178956097         -0.3377
H474       H    0.9757411267    0.5182076369   -0.2331981394          0.6352
C475       C    1.0027407078    0.4957640742   -0.2913004798         -0.3422
N476       N    1.0156672600    0.4994964594   -0.3236071428          -0.344
N477       N    1.0412099919    0.5041542560   -0.3210716892         -0.3483
N478       N    1.0428601096    0.5027154957   -0.2893539193         -0.3485
N479       N    0.9965785115    0.4977058640   -0.3486686087         -0.3412
H480       H    0.9850971088    0.5142863902   -0.2870965013          0.6412
H481       H    0.9913907568    0.4726022025   -0.2889010214         -0.3217
H482       H    1.0486644023    0.4815977329   -0.2715934702         -0.3306
N483       N    1.0000000000    0.5000000000   -0.3787165775         -0.3419
H484       H    1.0507265734    0.4903435130   -0.1529644473         -0.3439
C435       C    1.0000000000    0.5000000000    0.1212834225          0.6461
C436       C    0.9776149591    0.5103940975    0.1411560730          0.6378
C437       C    0.9826221719    0.5180503148    0.1711403188          0.6324
C438       C    1.0099954195    0.5087498860    0.1858418666          0.6413
C439       C    1.0342182987    0.5005746522    0.1653236008          0.6477
C440       C    1.0287645829    0.4963177963    0.1341482775            0.65
C441       C    1.0059544138    0.5079774905    0.2184563659          0.6436
H442       H    0.9623172541    0.5261131622    0.1849857175          0.6258
O443       O    0.9477504541    0.5064902444    0.1363921016           0.641
H444       H    1.0483444358    0.4883960829    0.1194053785         -0.3437
H445       H    1.0576245211    0.4962376751    0.1748478412          -0.348
C446       C    0.9794672780    0.4966348499    0.2321697192         -0.3457
C447       C    0.9701561771    0.4988187622    0.2669651501         -0.3461
H448       H    0.9603879017    0.4867619217    0.2178956097         -0.3377
H449       H    1.0242588733    0.5182076369    0.2331981394          0.6352
C450       C    0.9972592922    0.4957640742    0.2913004798         -0.3422
N451       N    0.9843327400    0.4994964594    0.3236071428          -0.344
N452       N    0.9587900081    0.5041542560    0.3210716892         -0.3483
N453       N    0.9571398904    0.5027154957    0.2893539193         -0.3485
N454       N    1.0034214885    0.4977058640    0.3486686087         -0.3412
H455       H    1.0149028912    0.5142863902    0.2870965013          0.6412
H456       H    1.0086092432    0.4726022025    0.2889010214         -0.3217
H457       H    0.9513355977    0.4815977329    0.2715934702         -0.3306
N458       N    1.0000000000    0.5000000000    0.3787165775         -0.3419
H459       H    0.9492734266    0.4903435130    0.1529644473         -0.3439
C410       C    1.0000000000   -0.1212834225    0.5000000000          0.6461
C411       C    1.0223850409   -0.1411560730    0.4896059025          0.6378
C412       C    1.0173778281   -0.1711403188    0.4819496852          0.6324
C413       C    0.9900045805   -0.1858418666    0.4912501140          0.6413
C414       C    0.9657817013   -0.1653236008    0.4994253478          0.6477
C415       C    0.9712354171   -0.1341482775    0.5036822037            0.65
C416       C    0.9940455862   -0.2184563659    0.4920225095          0.6436
H417       H    1.0376827459   -0.1849857175    0.4738868378          0.6258
O418       O    1.0522495459   -0.1363921016    0.4935097556           0.641
H419       H    0.9516555642   -0.1194053785    0.5116039171         -0.3437
H420       H    0.9423754789   -0.1748478412    0.5037623249          -0.348
C421       C    1.0205327220   -0.2321697192    0.5033651501         -0.3457
C422       C    1.0298438229   -0.2669651501    0.5011812378         -0.3461
H423       H    1.0396120983   -0.2178956097    0.5132380783         -0.3377
H424       H    0.9757411267   -0.2331981394    0.4817923631          0.6352
C425       C    1.0027407078   -0.2913004798    0.5042359258         -0.3422
N426       N    1.0156672600   -0.3236071428    0.5005035406          -0.344
N427       N    1.0412099919   -0.3210716892    0.4958457440         -0.3483
N428       N    1.0428601096   -0.2893539193    0.4972845043         -0.3485
N429       N    0.9965785115   -0.3486686087    0.5022941360         -0.3412
H430       H    0.9850971088   -0.2870965013    0.4857136098          0.6412
H431       H    0.9913907568   -0.2889010214    0.5273977975         -0.3217
H432       H    1.0486644023   -0.2715934702    0.5184022671         -0.3306
N433       N    1.0000000000   -0.3787165775    0.5000000000         -0.3419
H434       H    1.0507265734   -0.1529644473    0.5096564870         -0.3439
C385       C    1.0000000000    0.1212834225    0.5000000000          0.6461
C386       C    1.0206178691    0.1411560730    0.4864342051          0.6378
C387       C    1.0244935435    0.1711403188    0.4947208807          0.6324
C388       C    1.0021808478    0.1858418666    0.5131039238          0.6413
C389       C    0.9824827174    0.1653236008    0.5294001191          0.6477
C390       C    0.9817326635    0.1341482775    0.5225225281            0.65
C391       C    1.0036504462    0.2184563659    0.5092611900          0.6436
H392       H    1.0420344430    0.1849857175    0.4816972085          0.6258
O393       O    1.0330131452    0.1363921016    0.4589845082           0.641
H394       H    0.9646933131    0.1194053785    0.5350039030         -0.3437
H395       H    0.9664782025    0.1748478412    0.5470215866          -0.348
C396       C    1.0079429067    0.2321697192    0.4807691097         -0.3457
C397       C    1.0146995849    0.2669651501    0.4740005521         -0.3461
H398       H    1.0095871238    0.2178956097    0.4593496358         -0.3377
H399       H    1.0027177591    0.2331981394    0.5302096799          0.6352
C400       C    0.9978401377    0.2913004798    0.4954404450         -0.3422
N401       N    1.0078160484    0.3236071428    0.4864122858          -0.344
N402       N    1.0252176224    0.3210716892    0.4671428425         -0.3483
N403       N    1.0248624692    0.2893539193    0.4649825680         -0.3485
N404       N    0.9962487533    0.3486686087    0.5017022903         -0.3412
H405       H    1.0043064962    0.2870965013    0.5201903740          0.6412
H406       H    0.9721718686    0.2889010214    0.4929039813         -0.3217
H407       H    1.0099591198    0.2715934702    0.4489345183         -0.3306
N408       N    1.0000000000    0.3787165775    0.5000000000         -0.3419
H409       H    1.0184812765    0.1529644473    0.4517830382         -0.3439
C360       C    0.6212834225   -0.0000000000    0.5000000000          0.6461
C361       C    0.6411560730   -0.0147750103    0.5197693295          0.6378
C362       C    0.6711403188   -0.0067350502    0.5241338325          0.6324
C363       C    0.6858418666    0.0129499765    0.5029609162          0.6413
C364       C    0.6653236008    0.0303954707    0.4842730309          0.6477
C365       C    0.6341482775    0.0235750731    0.4831128516            0.65
C366       C    0.7184563659    0.0090262037    0.5041979810          0.6436
H367       H    0.6849857175   -0.0207848216    0.5408641379          0.6258
O368       O    0.6363921016   -0.0429171157    0.5305001558           0.641
H369       H    0.6194053785    0.0370535121    0.4668507525         -0.3437
H370       H    0.6748478412    0.0489428834    0.4693514326          -0.348
C371       C    0.7321697192   -0.0196716468    0.5067781429         -0.3457
C372       C    0.7669651501   -0.0268323152    0.5131177722         -0.3461
H373       H    0.7178956097   -0.0411511220    0.5071379413         -0.3377
H374       H    0.7331981394    0.0299929696    0.5045202603          0.6352
C375       C    0.7913004798   -0.0044221684    0.4975712199         -0.3422
N376       N    0.8236071428   -0.0140309895    0.5069891289          -0.344
N377       N    0.8210716892   -0.0343070086    0.5232066895         -0.3483
N378       N    0.7893539193   -0.0364421655    0.5227229287         -0.3485
N379       N    0.8486686087    0.0019236688    0.4963573166         -0.3412
H380       H    0.7870965013    0.0198965607    0.5055067215          0.6412
H381       H    0.7889010214   -0.0054184205    0.4717971793         -0.3217
H382       H    0.7715934702   -0.0515698388    0.5068861606         -0.3306
N383       N    0.8787165775   -0.0000000000    0.5000000000         -0.3419
H384       H    0.6529644473   -0.0492362807    0.5155634717         -0.3439
C335       C    1.3787165775   -0.0000000000    0.5000000000          0.6461
C336       C    1.3588439270    0.0145759952    0.5199165178          0.6378
C337       C    1.3288596812    0.0064926668    0.5242001664          0.6324
C338       C    1.3141581334   -0.0129790210    0.5028308885          0.6413
C339       C    1.3346763992   -0.0302362119    0.4839689775          0.6477
C340       C    1.3658517225   -0.0234045216    0.4828772601            0.65
C341       C    1.2815436341   -0.0090678524    0.5041072437          0.6436
H342       H    1.3150142825    0.0203739387    0.5410705393          0.6258
O343       O    1.3636078984    0.0426090629    0.5309290492           0.641
H344       H    1.3805946215   -0.0367191858    0.4664808001         -0.3437
H345       H    1.3251521588   -0.0486330391    0.4688621126          -0.348
C346       C    1.2678302808    0.0196026776    0.5069750942         -0.3457
C347       C    1.2330348499    0.0266994040    0.5133862211         -0.3461
H348       H    1.2821043903    0.0410774640    0.5075502981         -0.3377
H349       H    1.2668018606   -0.0300367960    0.5042192253          0.6352
C350       C    1.2086995202    0.0044463049    0.4976156932         -0.3422
N351       N    1.1763928572    0.0139601880    0.5071294980          -0.344
N352       N    1.1789283108    0.0340725370    0.5235495966         -0.3483
N353       N    1.2106460807    0.0362124383    0.5230872742         -0.3485
N354       N    1.1513313913   -0.0018870385    0.4963382068         -0.3412
H355       H    1.2129034987   -0.0199507885    0.5053068965          0.6412
H356       H    1.2110989786    0.0057010017    0.4718529405         -0.3217
H357       H    1.2284065298    0.0514981820    0.5074030222         -0.3306
N358       N    1.1212834225   -0.0000000000    0.5000000000         -0.3419
H359       H    1.3470355527    0.0490777141    0.5160564929         -0.3439
C310       C   -0.0000000000   -0.1212834225    0.0000000000          0.6461
C311       C    0.0180204274   -0.1411560730    0.0168639116          0.6378
C312       C    0.0232444806   -0.1711403188    0.0093539774          0.6324
C313       C    0.0043701854   -0.1858418666   -0.0125447358          0.6413
C314       C   -0.0122810535   -0.1653236008   -0.0319436679          0.6477
C315       C   -0.0141858887   -0.1341482775   -0.0252926949            0.65
C316       C    0.0051672467   -0.2184563659   -0.0085085228          0.6436
H317       H    0.0383243327   -0.1849857175    0.0251621163          0.6258
O318       O    0.0255841362   -0.1363921016    0.0460172826           0.641
H319       H   -0.0288633576   -0.1194053785   -0.0404813779         -0.3437
H320       H   -0.0250675012   -0.1748478412   -0.0520226961          -0.348
C321       C    0.0045686961   -0.2321697192    0.0202988651         -0.3457
C322       C    0.0100804737   -0.2669651501    0.0281146427         -0.3461
H323       H    0.0025588977   -0.2178956097    0.0416871334         -0.3377
H324       H    0.0077984579   -0.2331981394   -0.0293120288          0.6352
C325       C   -0.0029013813   -0.2913004798    0.0041275335         -0.3422
N326       N    0.0054000934   -0.3236071428    0.0147158276          -0.344
N327       N    0.0192840858   -0.3210716892    0.0366557678         -0.3483
N328       N    0.0185679416   -0.2893539193    0.0387245976         -0.3485
N329       N   -0.0034084694   -0.3486686087   -0.0023134348         -0.3412
H330       H    0.0076661126   -0.2870965013   -0.0191684070          0.6412
H331       H   -0.0286281986   -0.2889010214    0.0022769768         -0.3217
H332       H    0.0011603306   -0.2715934702    0.0520146241         -0.3306
N333       N   -0.0000000000   -0.3787165775    0.0000000000         -0.3419
H334       H    0.0100419734   -0.1529644473    0.0506516708         -0.3439
C285       C   -0.0000000000    0.3787165775    0.0000000000          0.6461
C286       C    0.0170431003    0.3588439270    0.0178510517          0.6378
C287       C    0.0226813972    0.3288596812    0.0106469243          0.6324
C288       C    0.0050690455    0.3141581334   -0.0122789940          0.6413
C289       C   -0.0104644118    0.3346763992   -0.0325840188          0.6477
C290       C   -0.0127404217    0.3658517225   -0.0260507487            0.65
C291       C    0.0056377621    0.2815436341   -0.0082043304          0.6436
H292       H    0.0368479789    0.3150142825    0.0272784352          0.6258
O293       O    0.0229546248    0.3636078984    0.0473837896           0.641
H294       H   -0.0265401089    0.3805946215   -0.0420411464         -0.3437
H295       H   -0.0221009362    0.3251521588   -0.0533506245          -0.348
C296       C    0.0034194208    0.2678302808    0.0205237538         -0.3457
C297       C    0.0084827431    0.2330348499    0.0286372512         -0.3461
H298       H    0.0002094759    0.2821043903    0.0417650712         -0.3377
H299       H    0.0094352362    0.2668018606   -0.0288268503          0.6352
C300       C   -0.0031290058    0.2086995202    0.0039577606         -0.3422
N301       N    0.0045636098    0.1763928572    0.0149963347          -0.344
N302       N    0.0171912434    0.1789283108    0.0376826542         -0.3483
N303       N    0.0163598386    0.2106460807    0.0397079161         -0.3485
N304       N   -0.0032729140    0.1513313913   -0.0025015351         -0.3412
H305       H    0.0087324080    0.2129034987   -0.0187067411          0.6412
H306       H   -0.0287109594    0.2110989786    0.0006627130         -0.3217
H307       H   -0.0017679132    0.2284065298    0.0519975188         -0.3306
N308       N    0.0000000000    0.1212834225    0.0000000000         -0.3419
H309       H    0.0071763432    0.3470355527    0.0511364165         -0.3439
C260       C   -0.3787165775   -0.0000000000    0.0000000000          0.6461
C261       C   -0.3588439270   -0.0025233395    0.0245511726          0.6378
C262       C   -0.3288596812    0.0066167857    0.0241665248          0.6324
C263       C   -0.3141581334    0.0126321026   -0.0041108270          0.6413
C264       C   -0.3346763992    0.0180022170   -0.0291057104          0.6477
C265       C   -0.3658517225    0.0115542991   -0.0265980831            0.65
C266       C   -0.2815436341    0.0099008120   -0.0010340798          0.6436
H267       H   -0.3150142825    0.0031548155    0.0457376619          0.6258
O268       O   -0.3636078984   -0.0211582388    0.0482127292           0.641
H269       H   -0.3805946215    0.0147665351   -0.0474740435         -0.3437
H270       H   -0.3251521588    0.0262522328   -0.0514350152          -0.348
C271       C   -0.2678302808   -0.0133972595    0.0159194958         -0.3457
C272       C   -0.2330348499   -0.0162850951    0.0250368681         -0.3461
H273       H   -0.2821043903   -0.0316422503    0.0272604667         -0.3377
H274       H   -0.2668018606    0.0280562163   -0.0115264783          0.6352
C275       C   -0.2086995202   -0.0050417694    0.0001873692         -0.3422
N276       N   -0.1763928572   -0.0084491041    0.0132033795          -0.344
N277       N   -0.1789283108   -0.0175166661    0.0375324884         -0.3483
N278       N   -0.2106460807   -0.0195971391    0.0382140688         -0.3485
N279       N   -0.1513313913   -0.0002204062   -0.0041135222         -0.3412
H280       H   -0.2129034987    0.0198999742   -0.0054943732          0.6412
H281       H   -0.2110989786   -0.0191345979   -0.0214155443         -0.3217
H282       H   -0.2284065298   -0.0407110227    0.0323956805         -0.3306
N283       N   -0.1212834225   -0.0000000000    0.0000000000         -0.3419
H284       H   -0.3470355527   -0.0342519583    0.0386424163         -0.3439
C235       C    0.3787165775   -0.0000000000    0.0000000000          0.6461
C236       C    0.3588439270    0.0156595046    0.0190763527          0.6378
C237       C    0.3288596812    0.0078265284    0.0238022736          0.6324
C238       C    0.3141581334   -0.0128017887    0.0035472694          0.6413
C239       C    0.3346763992   -0.0310797875   -0.0143272120          0.6477
C240       C    0.3658517225   -0.0243192641   -0.0157966213            0.65
C241       C    0.2815436341   -0.0088257771    0.0046044606          0.6436
H242       H    0.3150142825    0.0226232237    0.0398757611          0.6258
O243       O    0.3636078984    0.0442608613    0.0285151623           0.641
H244       H    0.3805946215   -0.0385239087   -0.0314283921         -0.3437
H245       H    0.3251521588   -0.0502871392   -0.0283891556          -0.348
C246       C    0.2678302808    0.0199597690    0.0058757578         -0.3457
C247       C    0.2330348499    0.0274015663    0.0118828973         -0.3461
H248       H    0.2821043903    0.0414333601    0.0052575391         -0.3377
H249       H    0.2668018606   -0.0297561452    0.0058807140          0.6352
C250       C    0.2086995202    0.0043070389   -0.0026275392         -0.3422
N251       N    0.1763928572    0.0143345605    0.0063432613          -0.344
N252       N    0.1789283108    0.0353277132    0.0216211461         -0.3483
N253       N    0.2106460807    0.0374386388    0.0210407043         -0.3485
N254       N    0.1513313913   -0.0020874729   -0.0035513520         -0.3412
H255       H    0.2129034987   -0.0196253008    0.0064066121          0.6412
H256       H    0.2110989786    0.0041291458   -0.0284202134         -0.3217
H257       H    0.2284065298    0.0518298195    0.0045318086         -0.3306
N258       N    0.1212834225   -0.0000000000    0.0000000000         -0.3419
H259       H    0.3470355527    0.0498936301    0.0133063394         -0.3439
C210       C   -0.0000000000    0.0000000000   -0.1212834225          0.6461
C211       C   -0.0227134360   -0.0096554205   -0.1411560730          0.6378
C212       C   -0.0179596473   -0.0174715152   -0.1711403188          0.6324
C213       C    0.0097035024   -0.0090725386   -0.1858418666          0.6413
C214       C    0.0341811240   -0.0016949801   -0.1653236008          0.6477
C215       C    0.0288697440    0.0027381995   -0.1341482775            0.65
C216       C    0.0056899600   -0.0081682160   -0.2184563659          0.6436
H217       H   -0.0385177284   -0.0248650593   -0.1849857175          0.6258
O218       O   -0.0524340716   -0.0047756104   -0.1363921016           0.641
H219       H    0.0486985271    0.0100144309   -0.1194053785         -0.3437
H220       H    0.0577168253    0.0018731258   -0.1748478412          -0.348
C221       C   -0.0204115006    0.0040357838   -0.2321697192         -0.3457
C222       C   -0.0297891292    0.0021579779   -0.2669651501         -0.3461
H223       H   -0.0391573079    0.0145282582   -0.2178956097         -0.3377
H224       H    0.0236495674   -0.0189923389   -0.2331981394          0.6352
C225       C   -0.0026005127    0.0043234107   -0.2913004798         -0.3422
N226       N   -0.0156423651    0.0010163672   -0.3236071428          -0.344
N227       N   -0.0413239366   -0.0028024162   -0.3210716892         -0.3483
N228       N   -0.0429260504   -0.0013103870   -0.2893539193         -0.3485
N229       N    0.0034947853    0.0021808530   -0.3486686087         -0.3412
H230       H    0.0144270233   -0.0147667907   -0.2870965013          0.6412
H231       H    0.0095018924    0.0271011516   -0.2889010214         -0.3217
H232       H   -0.0480356309    0.0199861364   -0.2715934702         -0.3306
N233       N    0.0000000000    0.0000000000   -0.3787165775         -0.3419
H234       H   -0.0503831168    0.0113125829   -0.1529644473         -0.3439
C185       C   -0.0000000000    0.0000000000    0.1212834225          0.6461
C186       C    0.0115450948    0.0218137137    0.1411560730          0.6378
C187       C    0.0189303221    0.0164148007    0.1711403188          0.6324
C188       C    0.0082177899   -0.0104372815    0.1858418666          0.6413
C189       C   -0.0012071034   -0.0342018288    0.1653236008          0.6477
C190       C   -0.0051743375   -0.0285339462    0.1341482775            0.65
C191       C    0.0076567656   -0.0063615516    0.2184563659          0.6436
H192       H    0.0280390613    0.0362725463    0.1849857175          0.6258
O193       O    0.0092009057    0.0518409265    0.1363921016           0.641
H194       H   -0.0141043961   -0.0476749555    0.1194053785         -0.3437
H195       H   -0.0067564376   -0.0573505978    0.1748478412          -0.348
C196       C   -0.0022919123    0.0206800398    0.2321697192         -0.3457
C197       C    0.0003736595    0.0298648533    0.2669651501         -0.3461
H198       H   -0.0111584250    0.0402474173    0.2178956097         -0.3377
H199       H    0.0169203448   -0.0251736550    0.2331981394          0.6352
C200       C   -0.0040875375    0.0029574624    0.2913004798         -0.3422
N201       N    0.0003125836    0.0156722328    0.3236071428          -0.344
N202       N    0.0062935023    0.0409379177    0.3210716892         -0.3483
N203       N    0.0049425766    0.0426606827    0.2893539193         -0.3485
N204       N   -0.0024691065   -0.0032974471    0.3486686087         -0.3412
H205       H    0.0134913684   -0.0156262628    0.2870965013          0.6412
H206       H   -0.0278087524   -0.0071715875    0.2889010214         -0.3217
H207       H   -0.0158444645    0.0495562350    0.2715934702         -0.3306
N208       N    0.0000000000    0.0000000000    0.3787165775         -0.3419
H209       H   -0.0070032075    0.0511604151    0.1529644473         -0.3439
loop_
_geom_bond_atom_site_label_1
_geom_bond_atom_site_label_2
_geom_bond_distance
_geom_bond_site_symmetry_2
_ccdc_geom_bond_type
Zn1          O5 1.942       .   S
Zn1          O6 1.922       .   S
Zn1         O10 1.922       .   S
Zn1         O17 1.922       .   S
Zn2          O5 1.942       .   S
Zn2          O7 1.922       .   S
Zn2          O9 1.922       .   S
Zn2         O13 1.922       .   S
Zn3          O5 1.942       .   S
Zn3          O8 1.922       .   S
Zn3         O11 1.922       .   S
Zn3         O14 1.922       .   S
Zn4          O5 1.942       .   S
Zn4         O12 1.922       .   S
Zn4         O15 1.922       .   S
Zn4         O16 1.922       .   S
O6          C18 1.304       .   A
O7          C19 1.304       .   A
O8          C20 1.304       .   A
O9          C18 1.304       .   A
O10         C20 1.304       .   A
O11         C19 1.304       .   A
O12         C21 1.304       .   A
O13         C22 1.304       .   A
O14         C21 1.304       .   A
O15         C22 1.304       .   A
O16         C23 1.304       .   A
O17         C23 1.304       .   A
C18        C185 1.540       .   S
C19        N258 1.540       .   S
C20        C310 1.540       .   S
C21        C210 1.540       .   S
C22        N308 1.540       .   S
C23        N283 1.540       .   S
Zn24        O28 1.942       .   S
Zn24        O29 1.922       .   S
Zn24        O33 1.922       .   S
Zn24        O40 1.922       .   S
Zn25        O28 1.942       .   S
Zn25        O30 1.922       .   S
Zn25        O32 1.922       .   S
Zn25        O36 1.922       .   S
Zn26        O28 1.942       .   S
Zn26        O31 1.922       .   S
Zn26        O34 1.922       .   S
Zn26        O37 1.922       .   S
Zn27        O28 1.942       .   S
Zn27        O35 1.922       .   S
Zn27        O38 1.922       .   S
Zn27        O39 1.922       .   S
O29         C41 1.304       .   A
O30         C42 1.304       .   A
O31         C43 1.304       .   A
O32         C41 1.304       .   A
O33         C43 1.304       .   A
O34         C42 1.304       .   A
O35         C44 1.304       .   A
O36         C45 1.304       .   A
O37         C44 1.304       .   A
O38         C45 1.304       .   A
O39         C46 1.304       .   A
O40         C46 1.304       .   A
C41        N208 1.540   1_655   S
C42        N358 1.540       .   S
C43        C385 1.540       .   S
C44        N233 1.540   1_656   S
C45        C410 1.540       .   S
C46        N383 1.540       .   S
Zn47        O51 1.942       .   S
Zn47        O52 1.922       .   S
Zn47        O56 1.922       .   S
Zn47        O63 1.922       .   S
Zn48        O51 1.942       .   S
Zn48        O53 1.922       .   S
Zn48        O55 1.922       .   S
Zn48        O59 1.922       .   S
Zn49        O51 1.942       .   S
Zn49        O54 1.922       .   S
Zn49        O57 1.922       .   S
Zn49        O60 1.922       .   S
Zn50        O51 1.942       .   S
Zn50        O58 1.922       .   S
Zn50        O61 1.922       .   S
Zn50        O62 1.922       .   S
O52         C64 1.304       .   A
O53         C65 1.304       .   A
O54         C66 1.304       .   A
O55         C64 1.304       .   A
O56         C66 1.304       .   A
O57         C65 1.304       .   A
O58         C67 1.304       .   A
O59         C68 1.304       .   A
O60         C67 1.304       .   A
O61         C68 1.304       .   A
O62         C69 1.304       .   A
O63         C69 1.304       .   A
C64        C460 1.540       .   S
C65        C485 1.540       .   S
C66        N333 1.540   1_665   S
C67        C435 1.540       .   S
C68        C285 1.540   1_655   S
C69        N533 1.540       .   S
Zn70        O74 1.942       .   S
Zn70        O75 1.922       .   S
Zn70        O79 1.922       .   S
Zn70        O86 1.922       .   S
Zn71        O74 1.942       .   S
Zn71        O76 1.922       .   S
Zn71        O78 1.922       .   S
Zn71        O82 1.922       .   S
Zn72        O74 1.942       .   S
Zn72        O77 1.922       .   S
Zn72        O80 1.922       .   S
Zn72        O83 1.922       .   S
Zn73        O74 1.942       .   S
Zn73        O81 1.922       .   S
Zn73        O84 1.922       .   S
Zn73        O85 1.922       .   S
O75         C87 1.304       .   A
O76         C88 1.304       .   A
O77         C89 1.304       .   A
O78         C87 1.304       .   A
O79         C89 1.304       .   A
O80         C88 1.304       .   A
O81         C90 1.304       .   A
O82         C91 1.304       .   A
O83         C90 1.304       .   A
O84         C91 1.304       .   A
O85         C92 1.304       .   A
O86         C92 1.304       .   A
C87        N408 1.540       .   S
C88        N458 1.540       .   S
C89        C560 1.540       .   S
C90        N433 1.540   1_565   S
C91        C535 1.540       .   S
C92        N483 1.540   1_556   S
Zn93        O97 1.942       .   S
Zn93        O98 1.922       .   S
Zn93       O102 1.922       .   S
Zn93       O109 1.922       .   S
Zn94        O97 1.942       .   S
Zn94        O99 1.922       .   S
Zn94       O101 1.922       .   S
Zn94       O105 1.922       .   S
Zn95        O97 1.942       .   S
Zn95       O100 1.922       .   S
Zn95       O103 1.922       .   S
Zn95       O106 1.922       .   S
Zn96        O97 1.942       .   S
Zn96       O104 1.922       .   S
Zn96       O107 1.922       .   S
Zn96       O108 1.922       .   S
O98        C110 1.304       .   A
O99        C111 1.304       .   A
O100       C112 1.304       .   A
O101       C110 1.304       .   A
O102       C112 1.304       .   A
O103       C111 1.304       .   A
O104       C113 1.304       .   A
O105       C114 1.304       .   A
O106       C113 1.304       .   A
O107       C114 1.304       .   A
O108       C115 1.304       .   A
O109       C115 1.304       .   A
C110       C235 1.540   1_565   S
C111       C585 1.540       .   S
C112       C660 1.540       .   S
C113       C260 1.540   1_665   S
C114       N658 1.540       .   S
C115       N633 1.540       .   S
Zn116      O120 1.942       .   S
Zn116      O121 1.922       .   S
Zn116      O125 1.922       .   S
Zn116      O132 1.922       .   S
Zn117      O120 1.942       .   S
Zn117      O122 1.922       .   S
Zn117      O124 1.922       .   S
Zn117      O128 1.922       .   S
Zn118      O120 1.942       .   S
Zn118      O123 1.922       .   S
Zn118      O126 1.922       .   S
Zn118      O129 1.922       .   S
Zn119      O120 1.942       .   S
Zn119      O127 1.922       .   S
Zn119      O130 1.922       .   S
Zn119      O131 1.922       .   S
O121       C133 1.304       .   A
O122       C134 1.304       .   A
O123       C135 1.304       .   A
O124       C133 1.304       .   A
O125       C135 1.304       .   A
O126       C134 1.304       .   A
O127       C136 1.304       .   A
O128       C137 1.304       .   A
O129       C136 1.304       .   A
O130       C137 1.304       .   A
O131       C138 1.304       .   A
O132       C138 1.304       .   A
C133       C335 1.540   1_465   S
C134       N608 1.540       .   S
C135       C685 1.540       .   S
C136       C360 1.540   1_565   S
C137       C710 1.540       .   S
C138       C610 1.540   1_556   S
Zn139      O143 1.942       .   S
Zn139      O144 1.922       .   S
Zn139      O148 1.922       .   S
Zn139      O155 1.922       .   S
Zn140      O143 1.942       .   S
Zn140      O145 1.922       .   S
Zn140      O147 1.922       .   S
Zn140      O151 1.922       .   S
Zn141      O143 1.942       .   S
Zn141      O146 1.922       .   S
Zn141      O149 1.922       .   S
Zn141      O152 1.922       .   S
Zn142      O143 1.942       .   S
Zn142      O150 1.922       .   S
Zn142      O153 1.922       .   S
Zn142      O154 1.922       .   S
O144       C156 1.304       .   A
O145       C157 1.304       .   A
O146       C158 1.304       .   A
O147       C156 1.304       .   A
O148       C158 1.304       .   A
O149       C157 1.304       .   A
O150       C159 1.304       .   A
O151       C160 1.304       .   A
O152       C159 1.304       .   A
O153       C160 1.304       .   A
O154       C161 1.304       .   A
O155       C161 1.304       .   A
C156       N683 1.540       .   S
C157       C735 1.540       .   S
C158       N508 1.540   1_455   S
C159       C635 1.540   1_545   S
C160       C510 1.540       .   S
C161       C760 1.540       .   S
Zn162      O166 1.942       .   S
Zn162      O167 1.922       .   S
Zn162      O171 1.922       .   S
Zn162      O178 1.922       .   S
Zn163      O166 1.942       .   S
Zn163      O168 1.922       .   S
Zn163      O170 1.922       .   S
Zn163      O174 1.922       .   S
Zn164      O166 1.942       .   S
Zn164      O169 1.922       .   S
Zn164      O172 1.922       .   S
Zn164      O175 1.922       .   S
Zn165      O166 1.942       .   S
Zn165      O173 1.922       .   S
Zn165      O176 1.922       .   S
Zn165      O177 1.922       .   S
O167       C179 1.304       .   A
O168       C180 1.304       .   A
O169       C181 1.304       .   A
O170       C179 1.304       .   A
O171       C181 1.304       .   A
O172       C180 1.304       .   A
O173       C182 1.304       .   A
O174       C183 1.304       .   A
O175       C182 1.304       .   A
O176       C183 1.304       .   A
O177       C184 1.304       .   A
O178       C184 1.304       .   A
C179       N558 1.540   1_455   S
C180       N783 1.540   1_556   S
C181       N708 1.540   1_545   S
C182       N583 1.540       .   S
C183       N733 1.540       .   S
C184       N758 1.540       .   S
C760       C761 0.028       .   A
C760       C765 0.028       .   A
C761       C762 0.028       .   A
C761       O768 0.027       .   A
C762       C763 0.029       .   A
C762       H767 0.023       .   A
C763       C764 0.029       .   A
C763       C766 0.029       .   A
C764       C765 0.028       .   A
C764       H770 0.023       .   A
C765       H769 0.023       .   A
C766       C771 0.028       .   A
C766       H774 0.023       .   A
O768       H784 0.021       .   A
C771       C772 0.032       .   A
C771       H773 0.023       .   A
C772       C775 0.033       .   A
C772       N778 0.023       .   A
C772       H782 0.023       .   A
C775       N776 0.031       .   A
C775       H780 0.023       .   A
C775       H781 0.023       .   A
N776       N777 0.023       .   A
N776       N779 0.028       .   A
N777       N778 0.028       .   A
N779       N783 0.027       .   A
C735       C736 0.028       .   A
C735       C740 0.028       .   A
C736       C737 0.028       .   A
C736       O743 0.027       .   A
C737       C738 0.029       .   A
C737       H742 0.023       .   A
C738       C739 0.029       .   A
C738       C741 0.029       .   A
C739       C740 0.028       .   A
C739       H745 0.023       .   A
C740       H744 0.023       .   A
C741       C746 0.028       .   A
C741       H749 0.023       .   A
O743       H759 0.021       .   A
C746       C747 0.032       .   A
C746       H748 0.023       .   A
C747       C750 0.033       .   A
C747       N753 0.023       .   A
C747       H757 0.023       .   A
C750       N751 0.031       .   A
C750       H755 0.023       .   A
C750       H756 0.023       .   A
N751       N752 0.023       .   A
N751       N754 0.028       .   A
N752       N753 0.028       .   A
N754       N758 0.027       .   A
C710       C711 0.028       .   A
C710       C715 0.028       .   A
C711       C712 0.028       .   A
C711       O718 0.027       .   A
C712       C713 0.029       .   A
C712       H717 0.023       .   A
C713       C714 0.029       .   A
C713       C716 0.029       .   A
C714       C715 0.028       .   A
C714       H720 0.023       .   A
C715       H719 0.023       .   A
C716       C721 0.028       .   A
C716       H724 0.023       .   A
O718       H734 0.021       .   A
C721       C722 0.032       .   A
C721       H723 0.023       .   A
C722       C725 0.033       .   A
C722       N728 0.023       .   A
C722       H732 0.023       .   A
C725       N726 0.031       .   A
C725       H730 0.023       .   A
C725       H731 0.023       .   A
N726       N727 0.023       .   A
N726       N729 0.028       .   A
N727       N728 0.028       .   A
N729       N733 0.027       .   A
C685       C686 0.028       .   A
C685       C690 0.028       .   A
C686       C687 0.028       .   A
C686       O693 0.027       .   A
C687       C688 0.029       .   A
C687       H692 0.023       .   A
C688       C689 0.029       .   A
C688       C691 0.029       .   A
C689       C690 0.028       .   A
C689       H695 0.023       .   A
C690       H694 0.023       .   A
C691       C696 0.028       .   A
C691       H699 0.023       .   A
O693       H709 0.021       .   A
C696       C697 0.032       .   A
C696       H698 0.023       .   A
C697       C700 0.033       .   A
C697       N703 0.023       .   A
C697       H707 0.023       .   A
C700       N701 0.031       .   A
C700       H705 0.023       .   A
C700       H706 0.023       .   A
N701       N702 0.023       .   A
N701       N704 0.028       .   A
N702       N703 0.028       .   A
N704       N708 0.027       .   A
C660       C661 0.028       .   A
C660       C665 0.028       .   A
C661       C662 0.028       .   A
C661       O668 0.027       .   A
C662       C663 0.029       .   A
C662       H667 0.023       .   A
C663       C664 0.029       .   A
C663       C666 0.029       .   A
C664       C665 0.028       .   A
C664       H670 0.023       .   A
C665       H669 0.023       .   A
C666       C671 0.028       .   A
C666       H674 0.023       .   A
O668       H684 0.021       .   A
C671       C672 0.032       .   A
C671       H673 0.023       .   A
C672       C675 0.033       .   A
C672       N678 0.023       .   A
C672       H682 0.023       .   A
C675       N676 0.031       .   A
C675       H680 0.023       .   A
C675       H681 0.023       .   A
N676       N677 0.023       .   A
N676       N679 0.028       .   A
N677       N678 0.028       .   A
N679       N683 0.027       .   A
C635       C636 0.028       .   A
C635       C640 0.028       .   A
C636       C637 0.028       .   A
C636       O643 0.027       .   A
C637       C638 0.029       .   A
C637       H642 0.023       .   A
C638       C639 0.029       .   A
C638       C641 0.029       .   A
C639       C640 0.028       .   A
C639       H645 0.023       .   A
C640       H644 0.023       .   A
C641       C646 0.028       .   A
C641       H649 0.023       .   A
O643       H659 0.021       .   A
C646       C647 0.032       .   A
C646       H648 0.023       .   A
C647       C650 0.033       .   A
C647       N653 0.023       .   A
C647       H657 0.023       .   A
C650       N651 0.031       .   A
C650       H655 0.023       .   A
C650       H656 0.023       .   A
N651       N652 0.023       .   A
N651       N654 0.028       .   A
N652       N653 0.028       .   A
N654       N658 0.027       .   A
C610       C611 0.028       .   A
C610       C615 0.028       .   A
C611       C612 0.028       .   A
C611       O618 0.027       .   A
C612       C613 0.029       .   A
C612       H617 0.023       .   A
C613       C614 0.029       .   A
C613       C616 0.029       .   A
C614       C615 0.028       .   A
C614       H620 0.023       .   A
C615       H619 0.023       .   A
C616       C621 0.028       .   A
C616       H624 0.023       .   A
O618       H634 0.021       .   A
C621       C622 0.032       .   A
C621       H623 0.023       .   A
C622       C625 0.033       .   A
C622       N628 0.023       .   A
C622       H632 0.023       .   A
C625       N626 0.031       .   A
C625       H630 0.023       .   A
C625       H631 0.023       .   A
N626       N627 0.023       .   A
N626       N629 0.028       .   A
N627       N628 0.028       .   A
N629       N633 0.027       .   A
C585       C586 0.028       .   A
C585       C590 0.028       .   A
C586       C587 0.028       .   A
C586       O593 0.027       .   A
C587       C588 0.029       .   A
C587       H592 0.023       .   A
C588       C589 0.029       .   A
C588       C591 0.029       .   A
C589       C590 0.028       .   A
C589       H595 0.023       .   A
C590       H594 0.023       .   A
C591       C596 0.028       .   A
C591       H599 0.023       .   A
O593       H609 0.021       .   A
C596       C597 0.032       .   A
C596       H598 0.023       .   A
C597       C600 0.033       .   A
C597       N603 0.023       .   A
C597       H607 0.023       .   A
C600       N601 0.031       .   A
C600       H605 0.023       .   A
C600       H606 0.023       .   A
N601       N602 0.023       .   A
N601       N604 0.028       .   A
N602       N603 0.028       .   A
N604       N608 0.027       .   A
C560       C561 0.028       .   A
C560       C565 0.028       .   A
C561       C562 0.028       .   A
C561       O568 0.027       .   A
C562       C563 0.029       .   A
C562       H567 0.023       .   A
C563       C564 0.029       .   A
C563       C566 0.029       .   A
C564       C565 0.028       .   A
C564       H570 0.023       .   A
C565       H569 0.023       .   A
C566       C571 0.028       .   A
C566       H574 0.023       .   A
O568       H584 0.021       .   A
C571       C572 0.032       .   A
C571       H573 0.023       .   A
C572       C575 0.033       .   A
C572       N578 0.023       .   A
C572       H582 0.023       .   A
C575       N576 0.031       .   A
C575       H580 0.023       .   A
C575       H581 0.023       .   A
N576       N577 0.023       .   A
N576       N579 0.028       .   A
N577       N578 0.028       .   A
N579       N583 0.027       .   A
C535       C536 0.028       .   A
C535       C540 0.028       .   A
C536       C537 0.028       .   A
C536       O543 0.027       .   A
C537       C538 0.029       .   A
C537       H542 0.023       .   A
C538       C539 0.029       .   A
C538       C541 0.029       .   A
C539       C540 0.028       .   A
C539       H545 0.023       .   A
C540       H544 0.023       .   A
C541       C546 0.028       .   A
C541       H549 0.023       .   A
O543       H559 0.021       .   A
C546       C547 0.032       .   A
C546       H548 0.023       .   A
C547       C550 0.033       .   A
C547       N553 0.023       .   A
C547       H557 0.023       .   A
C550       N551 0.031       .   A
C550       H555 0.023       .   A
C550       H556 0.023       .   A
N551       N552 0.023       .   A
N551       N554 0.028       .   A
N552       N553 0.028       .   A
N554       N558 0.027       .   A
C510       C511 0.028       .   A
C510       C515 0.028       .   A
C511       C512 0.028       .   A
C511       O518 0.027       .   A
C512       C513 0.029       .   A
C512       H517 0.023       .   A
C513       C514 0.029       .   A
C513       C516 0.029       .   A
C514       C515 0.028       .   A
C514       H520 0.023       .   A
C515       H519 0.023       .   A
C516       C521 0.028       .   A
C516       H524 0.023       .   A
O518       H534 0.021       .   A
C521       C522 0.032       .   A
C521       H523 0.023       .   A
C522       C525 0.033       .   A
C522       N528 0.023       .   A
C522       H532 0.023       .   A
C525       N526 0.031       .   A
C525       H530 0.023       .   A
C525       H531 0.023       .   A
N526       N527 0.023       .   A
N526       N529 0.028       .   A
N527       N528 0.028       .   A
N529       N533 0.027       .   A
C485       C486 0.028       .   A
C485       C490 0.028       .   A
C486       C487 0.028       .   A
C486       O493 0.027       .   A
C487       C488 0.029       .   A
C487       H492 0.023       .   A
C488       C489 0.029       .   A
C488       C491 0.029       .   A
C489       C490 0.028       .   A
C489       H495 0.023       .   A
C490       H494 0.023       .   A
C491       C496 0.028       .   A
C491       H499 0.023       .   A
O493       H509 0.021       .   A
C496       C497 0.032       .   A
C496       H498 0.023       .   A
C497       C500 0.033       .   A
C497       N503 0.023       .   A
C497       H507 0.023       .   A
C500       N501 0.031       .   A
C500       H505 0.023       .   A
C500       H506 0.023       .   A
N501       N502 0.023       .   A
N501       N504 0.028       .   A
N502       N503 0.028       .   A
N504       N508 0.027       .   A
C460       C461 0.028       .   A
C460       C465 0.028       .   A
C461       C462 0.028       .   A
C461       O468 0.027       .   A
C462       C463 0.029       .   A
C462       H467 0.023       .   A
C463       C464 0.029       .   A
C463       C466 0.029       .   A
C464       C465 0.028       .   A
C464       H470 0.023       .   A
C465       H469 0.023       .   A
C466       C471 0.028       .   A
C466       H474 0.023       .   A
O468       H484 0.021       .   A
C471       C472 0.032       .   A
C471       H473 0.023       .   A
C472       C475 0.033       .   A
C472       N478 0.023       .   A
C472       H482 0.023       .   A
C475       N476 0.031       .   A
C475       H480 0.023       .   A
C475       H481 0.023       .   A
N476       N477 0.023       .   A
N476       N479 0.028       .   A
N477       N478 0.028       .   A
N479       N483 0.027       .   A
C435       C436 0.028       .   A
C435       C440 0.028       .   A
C436       C437 0.028       .   A
C436       O443 0.027       .   A
C437       C438 0.029       .   A
C437       H442 0.023       .   A
C438       C439 0.029       .   A
C438       C441 0.029       .   A
C439       C440 0.028       .   A
C439       H445 0.023       .   A
C440       H444 0.023       .   A
C441       C446 0.028       .   A
C441       H449 0.023       .   A
O443       H459 0.021       .   A
C446       C447 0.032       .   A
C446       H448 0.023       .   A
C447       C450 0.033       .   A
C447       N453 0.023       .   A
C447       H457 0.023       .   A
C450       N451 0.031       .   A
C450       H455 0.023       .   A
C450       H456 0.023       .   A
N451       N452 0.023       .   A
N451       N454 0.028       .   A
N452       N453 0.028       .   A
N454       N458 0.027       .   A
C410       C411 0.028       .   A
C410       C415 0.028       .   A
C411       C412 0.028       .   A
C411       O418 0.027       .   A
C412       C413 0.029       .   A
C412       H417 0.023       .   A
C413       C414 0.029       .   A
C413       C416 0.029       .   A
C414       C415 0.028       .   A
C414       H420 0.023       .   A
C415       H419 0.023       .   A
C416       C421 0.028       .   A
C416       H424 0.023       .   A
O418       H434 0.021       .   A
C421       C422 0.032       .   A
C421       H423 0.023       .   A
C422       C425 0.033       .   A
C422       N428 0.023       .   A
C422       H432 0.023       .   A
C425       N426 0.031       .   A
C425       H430 0.023       .   A
C425       H431 0.023       .   A
N426       N427 0.023       .   A
N426       N429 0.028       .   A
N427       N428 0.028       .   A
N429       N433 0.027       .   A
C385       C386 0.028       .   A
C385       C390 0.028       .   A
C386       C387 0.028       .   A
C386       O393 0.027       .   A
C387       C388 0.029       .   A
C387       H392 0.023       .   A
C388       C389 0.029       .   A
C388       C391 0.029       .   A
C389       C390 0.028       .   A
C389       H395 0.023       .   A
C390       H394 0.023       .   A
C391       C396 0.028       .   A
C391       H399 0.023       .   A
O393       H409 0.021       .   A
C396       C397 0.032       .   A
C396       H398 0.023       .   A
C397       C400 0.033       .   A
C397       N403 0.023       .   A
C397       H407 0.023       .   A
C400       N401 0.031       .   A
C400       H405 0.023       .   A
C400       H406 0.023       .   A
N401       N402 0.023       .   A
N401       N404 0.028       .   A
N402       N403 0.028       .   A
N404       N408 0.027       .   A
C360       C361 0.028       .   A
C360       C365 0.028       .   A
C361       C362 0.028       .   A
C361       O368 0.027       .   A
C362       C363 0.029       .   A
C362       H367 0.023       .   A
C363       C364 0.029       .   A
C363       C366 0.029       .   A
C364       C365 0.028       .   A
C364       H370 0.023       .   A
C365       H369 0.023       .   A
C366       C371 0.028       .   A
C366       H374 0.023       .   A
O368       H384 0.021       .   A
C371       C372 0.032       .   A
C371       H373 0.023       .   A
C372       C375 0.033       .   A
C372       N378 0.023       .   A
C372       H382 0.023       .   A
C375       N376 0.031       .   A
C375       H380 0.023       .   A
C375       H381 0.023       .   A
N376       N377 0.023       .   A
N376       N379 0.028       .   A
N377       N378 0.028       .   A
N379       N383 0.027       .   A
C335       C336 0.028       .   A
C335       C340 0.028       .   A
C336       C337 0.028       .   A
C336       O343 0.027       .   A
C337       C338 0.029       .   A
C337       H342 0.023       .   A
C338       C339 0.029       .   A
C338       C341 0.029       .   A
C339       C340 0.028       .   A
C339       H345 0.023       .   A
C340       H344 0.023       .   A
C341       C346 0.028       .   A
C341       H349 0.023       .   A
O343       H359 0.021       .   A
C346       C347 0.032       .   A
C346       H348 0.023       .   A
C347       C350 0.033       .   A
C347       N353 0.023       .   A
C347       H357 0.023       .   A
C350       N351 0.031       .   A
C350       H355 0.023       .   A
C350       H356 0.023       .   A
N351       N352 0.023       .   A
N351       N354 0.028       .   A
N352       N353 0.028       .   A
N354       N358 0.027       .   A
C310       C311 0.028       .   A
C310       C315 0.028       .   A
C311       C312 0.028       .   A
C311       O318 0.027       .   A
C312       C313 0.029       .   A
C312       H317 0.023       .   A
C313       C314 0.029       .   A
C313       C316 0.029       .   A
C314       C315 0.028       .   A
C314       H320 0.023       .   A
C315       H319 0.023       .   A
C316       C321 0.028       .   A
C316       H324 0.023       .   A
O318       H334 0.021       .   A
C321       C322 0.032       .   A
C321       H323 0.023       .   A
C322       C325 0.033       .   A
C322       N328 0.023       .   A
C322       H332 0.023       .   A
C325       N326 0.031       .   A
C325       H330 0.023       .   A
C325       H331 0.023       .   A
N326       N327 0.023       .   A
N326       N329 0.028       .   A
N327       N328 0.028       .   A
N329       N333 0.027       .   A
C285       C286 0.028       .   A
C285       C290 0.028       .   A
C286       C287 0.028       .   A
C286       O293 0.027       .   A
C287       C288 0.029       .   A
C287       H292 0.023       .   A
C288       C289 0.029       .   A
C288       C291 0.029       .   A
C289       C290 0.028       .   A
C289       H295 0.023       .   A
C290       H294 0.023       .   A
C291       C296 0.028       .   A
C291       H299 0.023       .   A
O293       H309 0.021       .   A
C296       C297 0.032       .   A
C296       H298 0.023       .   A
C297       C300 0.033       .   A
C297       N303 0.023       .   A
C297       H307 0.023       .   A
C300       N301 0.031       .   A
C300       H305 0.023       .   A
C300       H306 0.023       .   A
N301       N302 0.023       .   A
N301       N304 0.028       .   A
N302       N303 0.028       .   A
N304       N308 0.027       .   A
C260       C261 0.028       .   A
C260       C265 0.028       .   A
C261       C262 0.028       .   A
C261       O268 0.027       .   A
C262       C263 0.029       .   A
C262       H267 0.023       .   A
C263       C264 0.029       .   A
C263       C266 0.029       .   A
C264       C265 0.028       .   A
C264       H270 0.023       .   A
C265       H269 0.023       .   A
C266       C271 0.028       .   A
C266       H274 0.023       .   A
O268       H284 0.021       .   A
C271       C272 0.032       .   A
C271       H273 0.023       .   A
C272       C275 0.033       .   A
C272       N278 0.023       .   A
C272       H282 0.023       .   A
C275       N276 0.031       .   A
C275       H280 0.023       .   A
C275       H281 0.023       .   A
N276       N277 0.023       .   A
N276       N279 0.028       .   A
N277       N278 0.028       .   A
N279       N283 0.027       .   A
C235       C236 0.028       .   A
C235       C240 0.028       .   A
C236       C237 0.028       .   A
C236       O243 0.027       .   A
C237       C238 0.029       .   A
C237       H242 0.023       .   A
C238       C239 0.029       .   A
C238       C241 0.029       .   A
C239       C240 0.028       .   A
C239       H245 0.023       .   A
C240       H244 0.023       .   A
C241       C246 0.028       .   A
C241       H249 0.023       .   A
O243       H259 0.021       .   A
C246       C247 0.032       .   A
C246       H248 0.023       .   A
C247       C250 0.033       .   A
C247       N253 0.023       .   A
C247       H257 0.023       .   A
C250       N251 0.031       .   A
C250       H255 0.023       .   A
C250       H256 0.023       .   A
N251       N252 0.023       .   A
N251       N254 0.028       .   A
N252       N253 0.028       .   A
N254       N258 0.027       .   A
C210       C211 0.028       .   A
C210       C215 0.028       .   A
C211       C212 0.028       .   A
C211       O218 0.027       .   A
C212       C213 0.029       .   A
C212       H217 0.023       .   A
C213       C214 0.029       .   A
C213       C216 0.029       .   A
C214       C215 0.028       .   A
C214       H220 0.023       .   A
C215       H219 0.023       .   A
C216       C221 0.028       .   A
C216       H224 0.023       .   A
O218       H234 0.021       .   A
C221       C222 0.032       .   A
C221       H223 0.023       .   A
C222       C225 0.033       .   A
C222       N228 0.023       .   A
C222       H232 0.023       .   A
C225       N226 0.031       .   A
C225       H230 0.023       .   A
C225       H231 0.023       .   A
N226       N227 0.023       .   A
N226       N229 0.028       .   A
N227       N228 0.028       .   A
N229       N233 0.027       .   A
C185       C186 0.028       .   A
C185       C190 0.028       .   A
C186       C187 0.028       .   A
C186       O193 0.027       .   A
C187       C188 0.029       .   A
C187       H192 0.023       .   A
C188       C189 0.029       .   A
C188       C191 0.029       .   A
C189       C190 0.028       .   A
C189       H195 0.023       .   A
C190       H194 0.023       .   A
C191       C196 0.028       .   A
C191       H199 0.023       .   A
O193       H209 0.021       .   A
C196       C197 0.032       .   A
C196       H198 0.023       .   A
C197       C200 0.033       .   A
C197       N203 0.023       .   A
C197       H207 0.023       .   A
C200       N201 0.031       .   A
C200       H205 0.023       .   A
C200       H206 0.023       .   A
N201       N202 0.023       .   A
N201       N204 0.028       .   A
N202       N203 0.028       .   A
N204       N208 0.027       .   A
