data_pcu_v1-6c_Zn_1_Ch_1-72_fer_tobacco
_audit_creation_date              2021-02-03
_audit_creation_method            'tobacco_3.0'
_symmetry_space_group_name_H-M    'P1'
_symmetry_Int_Tables_number       1
_symmetry_cell_setting            triclinic
loop_
_symmetry_equiv_pos_as_xyz
  x,y,z
_cell_length_a                    26.389966189890263
_cell_length_b                    26.389966189890263
_cell_length_c                    26.389966189890263
_cell_angle_alpha                 90.0
_cell_angle_beta                  90.0
_cell_angle_gamma                 90.0
loop_
_atom_site_label
_atom_site_type_symbol
_atom_site_fract_x
_atom_site_fract_y
_atom_site_fract_z
_atom_site_charge
Zn1       Zn   -0.0424858445   -0.0424858445    0.0424858445          1.4972
Zn2       Zn    0.0424858445    0.0424858445    0.0424858445          1.4936
Zn3       Zn    0.0424858445   -0.0424858445   -0.0424858445          1.4911
Zn4       Zn   -0.0424858445    0.0424858445   -0.0424858445          1.4948
O5         O    0.0000000000    0.0000000000    0.0000000000          -2.105
O6         O   -0.0312239885   -0.0312239885    0.1135507328         -1.0113
O7         O    0.1135507328    0.0312239885    0.0312239885         -1.0095
O8         O    0.0312239885   -0.1135507328   -0.0312239885         -1.0047
O9         O    0.0312239885    0.0312239885    0.1135507328         -1.0114
O10        O   -0.0312239885   -0.1135507328    0.0312239885         -1.0074
O11        O    0.1135507328   -0.0312239885   -0.0312239885         -1.0133
O12        O   -0.0312239885    0.0312239885   -0.1135507328         -1.0072
O13        O    0.0312239885    0.1135507328    0.0312239885         -1.0147
O14        O    0.0312239885   -0.0312239885   -0.1135507328         -1.0086
O15        O   -0.0312239885    0.1135507328   -0.0312239885         -1.0133
O16        O   -0.1135507328    0.0312239885   -0.0312239885         -1.0124
O17        O   -0.1135507328   -0.0312239885    0.0312239885         -1.0103
C18        C   -0.0000000000   -0.0000000000    0.1357637207          0.5076
C19        C    0.1357637207   -0.0000000000   -0.0000000000          0.5125
C20        C   -0.0000000000   -0.1357637207    0.0000000000          0.5021
C21        C    0.0000000000    0.0000000000   -0.1357637207          0.5059
C22        C    0.0000000000    0.1357637207   -0.0000000000          0.5172
C23        C   -0.1357637207    0.0000000000    0.0000000000          0.5077
Zn24      Zn    0.9575141555    0.0424858445    0.4575141555          1.4972
Zn25      Zn    1.0424858445   -0.0424858445    0.4575141555          1.4936
Zn26      Zn    1.0424858445    0.0424858445    0.5424858445          1.4911
Zn27      Zn    0.9575141555   -0.0424858445    0.5424858445          1.4948
O28        O    1.0000000000    0.0000000000    0.5000000000          -2.105
O29        O    0.9687760115    0.0312239885    0.3864492672         -1.0113
O30        O    1.1135507328   -0.0312239885    0.4687760115         -1.0095
O31        O    1.0312239885    0.1135507328    0.5312239885         -1.0047
O32        O    1.0312239885   -0.0312239885    0.3864492672         -1.0114
O33        O    0.9687760115    0.1135507328    0.4687760115         -1.0074
O34        O    1.1135507328    0.0312239885    0.5312239885         -1.0133
O35        O    0.9687760115   -0.0312239885    0.6135507328         -1.0072
O36        O    1.0312239885   -0.1135507328    0.4687760115         -1.0147
O37        O    1.0312239885    0.0312239885    0.6135507328         -1.0086
O38        O    0.9687760115   -0.1135507328    0.5312239885         -1.0133
O39        O    0.8864492672   -0.0312239885    0.5312239885         -1.0124
O40        O    0.8864492672    0.0312239885    0.4687760115         -1.0103
C41        C    1.0000000000    0.0000000000    0.3642362793          0.5076
C42        C    1.1357637207    0.0000000000    0.5000000000          0.5125
C43        C    1.0000000000    0.1357637207    0.5000000000          0.5021
C44        C    1.0000000000    0.0000000000    0.6357637207          0.5059
C45        C    1.0000000000   -0.1357637207    0.5000000000          0.5172
C46        C    0.8642362793    0.0000000000    0.5000000000          0.5077
Zn47      Zn    1.0424858445    0.4575141555   -0.0424858445          1.4972
Zn48      Zn    0.9575141555    0.4575141555    0.0424858445          1.4936
Zn49      Zn    1.0424858445    0.5424858445    0.0424858445          1.4911
Zn50      Zn    0.9575141555    0.5424858445   -0.0424858445          1.4948
O51        O    1.0000000000    0.5000000000    0.0000000000          -2.105
O52        O    1.0312239885    0.3864492672   -0.0312239885         -1.0113
O53        O    0.9687760115    0.4687760115    0.1135507328         -1.0095
O54        O    1.1135507328    0.5312239885    0.0312239885         -1.0047
O55        O    0.9687760115    0.3864492672    0.0312239885         -1.0114
O56        O    1.1135507328    0.4687760115   -0.0312239885         -1.0074
O57        O    1.0312239885    0.5312239885    0.1135507328         -1.0133
O58        O    0.9687760115    0.6135507328   -0.0312239885         -1.0072
O59        O    0.8864492672    0.4687760115    0.0312239885         -1.0147
O60        O    1.0312239885    0.6135507328    0.0312239885         -1.0086
O61        O    0.8864492672    0.5312239885   -0.0312239885         -1.0133
O62        O    0.9687760115    0.5312239885   -0.1135507328         -1.0124
O63        O    1.0312239885    0.4687760115   -0.1135507328         -1.0103
C64        C    1.0000000000    0.3642362793    0.0000000000          0.5076
C65        C    1.0000000000    0.5000000000    0.1357637207          0.5125
C66        C    1.1357637207    0.5000000000    0.0000000000          0.5021
C67        C    1.0000000000    0.6357637207    0.0000000000          0.5059
C68        C    0.8642362793    0.5000000000    0.0000000000          0.5172
C69        C    1.0000000000    0.5000000000   -0.1357637207          0.5077
Zn70      Zn    0.9575141555    0.4575141555    0.5424858445          1.4972
Zn71      Zn    1.0424858445    0.4575141555    0.4575141555          1.4936
Zn72      Zn    0.9575141555    0.5424858445    0.4575141555          1.4911
Zn73      Zn    1.0424858445    0.5424858445    0.5424858445          1.4948
O74        O    1.0000000000    0.5000000000    0.5000000000          -2.105
O75        O    0.9687760115    0.3864492672    0.5312239885         -1.0113
O76        O    1.0312239885    0.4687760115    0.3864492672         -1.0095
O77        O    0.8864492672    0.5312239885    0.4687760115         -1.0047
O78        O    1.0312239885    0.3864492672    0.4687760115         -1.0114
O79        O    0.8864492672    0.4687760115    0.5312239885         -1.0074
O80        O    0.9687760115    0.5312239885    0.3864492672         -1.0133
O81        O    1.0312239885    0.6135507328    0.5312239885         -1.0072
O82        O    1.1135507328    0.4687760115    0.4687760115         -1.0147
O83        O    0.9687760115    0.6135507328    0.4687760115         -1.0086
O84        O    1.1135507328    0.5312239885    0.5312239885         -1.0133
O85        O    1.0312239885    0.5312239885    0.6135507328         -1.0124
O86        O    0.9687760115    0.4687760115    0.6135507328         -1.0103
C87        C    1.0000000000    0.3642362793    0.5000000000          0.5076
C88        C    1.0000000000    0.5000000000    0.3642362793          0.5125
C89        C    0.8642362793    0.5000000000    0.5000000000          0.5021
C90        C    1.0000000000    0.6357637207    0.5000000000          0.5059
C91        C    1.1357637207    0.5000000000    0.5000000000          0.5172
C92        C    1.0000000000    0.5000000000    0.6357637207          0.5077
Zn93      Zn    0.4575141555    0.9575141555   -0.0424858445          1.4972
Zn94      Zn    0.4575141555    1.0424858445    0.0424858445          1.4936
Zn95      Zn    0.5424858445    0.9575141555    0.0424858445          1.4911
Zn96      Zn    0.5424858445    1.0424858445   -0.0424858445          1.4948
O97        O    0.5000000000    1.0000000000    0.0000000000          -2.105
O98        O    0.3864492672    0.9687760115   -0.0312239885         -1.0113
O99        O    0.4687760115    1.0312239885    0.1135507328         -1.0095
O100       O    0.5312239885    0.8864492672    0.0312239885         -1.0047
O101       O    0.3864492672    1.0312239885    0.0312239885         -1.0114
O102       O    0.4687760115    0.8864492672   -0.0312239885         -1.0074
O103       O    0.5312239885    0.9687760115    0.1135507328         -1.0133
O104       O    0.6135507328    1.0312239885   -0.0312239885         -1.0072
O105       O    0.4687760115    1.1135507328    0.0312239885         -1.0147
O106       O    0.6135507328    0.9687760115    0.0312239885         -1.0086
O107       O    0.5312239885    1.1135507328   -0.0312239885         -1.0133
O108       O    0.5312239885    1.0312239885   -0.1135507328         -1.0124
O109       O    0.4687760115    0.9687760115   -0.1135507328         -1.0103
C110       C    0.3642362793    1.0000000000    0.0000000000          0.5076
C111       C    0.5000000000    1.0000000000    0.1357637207          0.5125
C112       C    0.5000000000    0.8642362793    0.0000000000          0.5021
C113       C    0.6357637207    1.0000000000    0.0000000000          0.5059
C114       C    0.5000000000    1.1357637207    0.0000000000          0.5172
C115       C    0.5000000000    1.0000000000   -0.1357637207          0.5077
Zn116     Zn    0.4575141555    1.0424858445    0.5424858445          1.4972
Zn117     Zn    0.4575141555    0.9575141555    0.4575141555          1.4936
Zn118     Zn    0.5424858445    1.0424858445    0.4575141555          1.4911
Zn119     Zn    0.5424858445    0.9575141555    0.5424858445          1.4948
O120       O    0.5000000000    1.0000000000    0.5000000000          -2.105
O121       O    0.3864492672    1.0312239885    0.5312239885         -1.0113
O122       O    0.4687760115    0.9687760115    0.3864492672         -1.0095
O123       O    0.5312239885    1.1135507328    0.4687760115         -1.0047
O124       O    0.3864492672    0.9687760115    0.4687760115         -1.0114
O125       O    0.4687760115    1.1135507328    0.5312239885         -1.0074
O126       O    0.5312239885    1.0312239885    0.3864492672         -1.0133
O127       O    0.6135507328    0.9687760115    0.5312239885         -1.0072
O128       O    0.4687760115    0.8864492672    0.4687760115         -1.0147
O129       O    0.6135507328    1.0312239885    0.4687760115         -1.0086
O130       O    0.5312239885    0.8864492672    0.5312239885         -1.0133
O131       O    0.5312239885    0.9687760115    0.6135507328         -1.0124
O132       O    0.4687760115    1.0312239885    0.6135507328         -1.0103
C133       C    0.3642362793    1.0000000000    0.5000000000          0.5076
C134       C    0.5000000000    1.0000000000    0.3642362793          0.5125
C135       C    0.5000000000    1.1357637207    0.5000000000          0.5021
C136       C    0.6357637207    1.0000000000    0.5000000000          0.5059
C137       C    0.5000000000    0.8642362793    0.5000000000          0.5172
C138       C    0.5000000000    1.0000000000    0.6357637207          0.5077
Zn139     Zn    0.5424858445    0.5424858445   -0.0424858445          1.4972
Zn140     Zn    0.4575141555    0.5424858445    0.0424858445          1.4936
Zn141     Zn    0.4575141555    0.4575141555   -0.0424858445          1.4911
Zn142     Zn    0.5424858445    0.4575141555    0.0424858445          1.4948
O143       O    0.5000000000    0.5000000000    0.0000000000          -2.105
O144       O    0.5312239885    0.6135507328   -0.0312239885         -1.0113
O145       O    0.3864492672    0.5312239885    0.0312239885         -1.0095
O146       O    0.4687760115    0.4687760115   -0.1135507328         -1.0047
O147       O    0.4687760115    0.6135507328    0.0312239885         -1.0114
O148       O    0.5312239885    0.5312239885   -0.1135507328         -1.0074
O149       O    0.3864492672    0.4687760115   -0.0312239885         -1.0133
O150       O    0.5312239885    0.3864492672    0.0312239885         -1.0072
O151       O    0.4687760115    0.5312239885    0.1135507328         -1.0147
O152       O    0.4687760115    0.3864492672   -0.0312239885         -1.0086
O153       O    0.5312239885    0.4687760115    0.1135507328         -1.0133
O154       O    0.6135507328    0.4687760115    0.0312239885         -1.0124
O155       O    0.6135507328    0.5312239885   -0.0312239885         -1.0103
C156       C    0.5000000000    0.6357637207    0.0000000000          0.5076
C157       C    0.3642362793    0.5000000000    0.0000000000          0.5125
C158       C    0.5000000000    0.5000000000   -0.1357637207          0.5021
C159       C    0.5000000000    0.3642362793    0.0000000000          0.5059
C160       C    0.5000000000    0.5000000000    0.1357637207          0.5172
C161       C    0.6357637207    0.5000000000    0.0000000000          0.5077
Zn162     Zn    0.4575141555    0.5424858445    0.4575141555          1.4972
Zn163     Zn    0.5424858445    0.5424858445    0.5424858445          1.4936
Zn164     Zn    0.4575141555    0.4575141555    0.5424858445          1.4911
Zn165     Zn    0.5424858445    0.4575141555    0.4575141555          1.4948
O166       O    0.5000000000    0.5000000000    0.5000000000          -2.105
O167       O    0.4687760115    0.6135507328    0.4687760115         -1.0113
O168       O    0.5312239885    0.5312239885    0.6135507328         -1.0095
O169       O    0.3864492672    0.4687760115    0.5312239885         -1.0047
O170       O    0.5312239885    0.6135507328    0.5312239885         -1.0114
O171       O    0.3864492672    0.5312239885    0.4687760115         -1.0074
O172       O    0.4687760115    0.4687760115    0.6135507328         -1.0133
O173       O    0.5312239885    0.3864492672    0.4687760115         -1.0072
O174       O    0.6135507328    0.5312239885    0.5312239885         -1.0147
O175       O    0.4687760115    0.3864492672    0.5312239885         -1.0086
O176       O    0.6135507328    0.4687760115    0.4687760115         -1.0133
O177       O    0.5312239885    0.4687760115    0.3864492672         -1.0124
O178       O    0.4687760115    0.5312239885    0.3864492672         -1.0103
C179       C    0.5000000000    0.6357637207    0.5000000000          0.5076
C180       C    0.5000000000    0.5000000000    0.6357637207          0.5125
C181       C    0.3642362793    0.5000000000    0.5000000000          0.5021
C182       C    0.5000000000    0.3642362793    0.5000000000          0.5059
C183       C    0.6357637207    0.5000000000    0.5000000000          0.5172
C184       C    0.5000000000    0.5000000000    0.3642362793          0.5077
C553       C    0.5000000000    0.5000000000   -0.3058807668         -0.2572
C554       C    0.5393792860    0.4855067842   -0.2766719648         -0.2566
C555       C    0.5328214518    0.4765687280   -0.2264959370          0.7269
C556       C    0.5000000000    0.5000000000   -0.1941192332          0.7283
C557       C    0.4671387106    0.5073898780   -0.2262815018          0.7249
C558       C    0.4659672650    0.5142144047   -0.2738457693         -0.2638
O559       O    0.5544224464    0.4900473056   -0.1953443625         -0.2573
Br560     Br    0.5897600520    0.4405396316   -0.2890308212           0.729
O561       O    0.4267292043    0.5428739772   -0.2747431637         -0.2564
C562       C    0.4046109483    0.5406847833   -0.1910993789          0.7218
H563       H    0.4347911782    0.5731780606   -0.2020976734         -0.2378
H564       H    0.4139316417    0.5049565101   -0.1748542099          0.6943
H565       H    0.4145856648    0.5541378829   -0.1654602246         -0.2665
O566       O    0.4359641315    0.5381249844   -0.2055541672         -0.2655
H567       H    0.5192061054    0.4925034641   -0.2282680158         -0.2655
H568       H    0.4359305112    0.5381407453   -0.2055617352         -0.2655
C537       C    0.5000000000    0.5000000000    0.3058807668         -0.2572
C538       C    0.5418076206    0.4964077404    0.2766719648         -0.2566
C539       C    0.5396637408    0.5072842204    0.2264959370          0.7269
C540       C    0.5000000000    0.5000000000    0.1941192332          0.7283
C541       C    0.4671091748    0.5072572899    0.2262815018          0.7249
C542       C    0.4631517326    0.5015752919    0.2738457693         -0.2638
O543       O    0.5535010899    0.4859112752    0.1953443625         -0.2573
Br544     Br    0.6065115510    0.5157382291    0.2890308212           0.729
O545       O    0.4154588823    0.4922807489    0.2747431637         -0.2564
C546       C    0.3963612499    0.5036513363    0.1910993789          0.7218
H547       H    0.4098955789    0.4614200531    0.2020976734         -0.2378
H548       H    0.4199659738    0.5320450300    0.1748542099          0.6943
H549       H    0.3996824577    0.4872363908    0.1654602246         -0.2665
O550       O    0.4258363755    0.4926608113    0.2055541672         -0.2655
H551       H    0.5205720789    0.4986354104    0.2282680158         -0.2655
H552       H    0.4257992443    0.4926608113    0.2055617352         -0.2655
C521       C    0.5000000000    0.8058807668    0.5000000000         -0.2572
C522       C    0.5406347711    0.7766719648    0.4895311486         -0.2566
C523       C    0.5350068546    0.7264959370    0.4799802014          0.7269
C524       C    0.5000000000    0.6941192332    0.5000000000          0.7283
C525       C    0.4665630641    0.7262815018    0.5040553612          0.7249
C526       C    0.4647127735    0.7738457693    0.5107279075         -0.2638
O527       O    0.5551464302    0.6953443625    0.4955581509         -0.2573
Br528     Br    0.5952731848    0.7890308212    0.4498460111           0.729
O529       O    0.4227970966    0.7747431637    0.5353057945         -0.2564
C530       C    0.4010101200    0.6910993789    0.5309083555          0.7218
H531       H    0.4277777458    0.7020976734    0.5662658660         -0.2378
H532       H    0.4138686657    0.6748542099    0.4962956030          0.6943
H533       H    0.4095846467    0.6654602246    0.5452944025         -0.2665
O534       O    0.4324619218    0.7055541672    0.5315073784         -0.2655
H535       H    0.5198613653    0.7282680158    0.4944683906         -0.2655
H536       H    0.4324268899    0.7055617352    0.5315196863         -0.2655
C505       C    0.5000000000    1.3058807668    0.5000000000         -0.2572
C506       C    0.4592903265    1.2766719648    0.4898263107         -0.2566
C507       C    0.4596830931    1.2264959370    0.5009051090          0.7269
C508       C    0.5000000000    1.1941192332    0.5000000000          0.7283
C509       C    0.5313246702    1.2262815018    0.5123790013          0.7249
C510       C    0.5361327236    1.2738457693    0.5073961234         -0.2638
O511       O    0.4494084639    1.1953443625    0.4776090361         -0.2573
Br512     Br    0.3923403656    1.2890308212    0.4986563238           0.729
O513       O    0.5846958857    1.2747431637    0.5057787854         -0.2564
C514       C    0.6017497503    1.1910993789    0.5200327506          0.7218
H515       H    0.5950805246    1.2020976734    0.4761900685         -0.2378
H516       H    0.5739428159    1.1748542099    0.5443259437          0.6943
H517       H    0.6010724312    1.1654602246    0.5032988899         -0.2665
O518       O    0.5743893451    1.2055541672    0.5045091268         -0.2655
H519       H    0.4799042983    1.2282680158    0.4953918219         -0.2655
H520       H    0.5744260069    1.2055617352    0.5045150123         -0.2655
C489       C    0.5000000000    0.8058807668    0.0000000000         -0.2572
C490       C    0.5096378643    0.7766719648   -0.0408398462         -0.2566
C491       C    0.4985651837    0.7264959370   -0.0403015323          0.7269
C492       C    0.5000000000    0.6941192332    0.0000000000          0.7283
C493       C    0.4880336902    0.7262815018    0.0314846322          0.7249
C494       C    0.4930793183    0.7738457693    0.0362267929         -0.2638
O495       O    0.5217242312    0.6953443625   -0.0508813971         -0.2573
Br496     Br    0.4999288559    0.7890308212   -0.1076679956           0.729
O497       O    0.4953346621    0.7747431637    0.0847645094         -0.2564
C498       C    0.4813060244    0.6910993789    0.1020042061          0.7218
H499       H    0.5250572839    0.7020976734    0.0947594403         -0.2378
H500       H    0.4566495311    0.6748542099    0.0745188979          0.6943
H501       H    0.4980295400    0.6654602246    0.1011070537         -0.2665
O502       O    0.4964687778    0.7055541672    0.0744421746         -0.2655
H503       H    0.5043437121    0.7282680158   -0.0201545206         -0.2655
H504       H    0.4964633745    0.7055617352    0.0744789106         -0.2655
C473       C    0.5000000000    1.3058807668    0.0000000000         -0.2572
C474       C    0.5419178082    1.2766719648    0.0019180253         -0.2566
C475       C    0.5393408283    1.2264959370   -0.0088640530          0.7269
C476       C    0.5000000000    1.1941192332    0.0000000000          0.7283
C477       C    0.4668453403    1.2262815018   -0.0059365965          0.7249
C478       C    0.4631182136    1.2738457693   -0.0001009323         -0.2638
O479       O    0.5540215517    1.1953443625    0.0119386242         -0.2573
Br480     Br    0.6057972292    1.2890308212   -0.0199837092           0.729
O481       O    0.4158350621    1.2747431637    0.0110928195         -0.2564
C482       C    0.3962981295    1.1910993789    0.0004947969          0.7218
H483       H    0.4115099384    1.2020976734    0.0421512515         -0.2378
H484       H    0.4187488754    1.1748542099   -0.0288198553          0.6943
H485       H    0.4002729101    1.1654602246    0.0167638465         -0.2665
O486       O    0.4261890654    1.2055541672    0.0102981951         -0.2655
H487       H    0.5206101860    1.2282680158    0.0005410792         -0.2655
H488       H    0.4261519639    1.2055617352    0.0102996795         -0.2655
C457       C    0.5000000000    1.0000000000   -0.1941192332         -0.2572
C458       C    0.5067183919    1.0414203414   -0.2233280352         -0.2566
C459       C    0.4957117325    1.0400984160   -0.2735040630          0.7269
C460       C    0.5000000000    1.0000000000   -0.3058807668          0.7283
C461       C    0.4902958100    0.9677462664   -0.2737184982          0.7249
C462       C    0.4956649250    0.9633737324   -0.2261542307         -0.2638
O463       O    0.5180624825    1.0522934558   -0.3046556375         -0.2573
Br464     Br    0.4922962221    1.1073920581   -0.2109691788           0.729
O465       O    0.5013555362    0.9151180234   -0.2252568363         -0.2564
C466       C    0.4885843534    0.8969271821   -0.3089006211          0.7218
H467       H    0.5317119374    0.9072553396   -0.2979023266         -0.2378
H468       H    0.4620414042    0.9225953857   -0.3251457901          0.6943
H469       H    0.5052021914    0.8990076428   -0.3345397754         -0.2665
O470       O    0.5017550262    0.9254947869   -0.2944458328         -0.2655
H471       H    0.5029039865    1.0204117465   -0.2717319842         -0.2655
H472       H    0.5017522407    0.9254577604   -0.2944382648         -0.2655
C441       C    0.5000000000    1.0000000000    0.3058807668 -0.25639999999999996
C442       C    0.5418076206    0.9964077404    0.2766719648         -0.2566
C443       C    0.5396637408    1.0072842204    0.2264959370          0.7269
C444       C    0.5000000000    1.0000000000    0.1941192332          0.7283
C445       C    0.4671091748    1.0072572899    0.2262815018          0.7249
C446       C    0.4631517326    1.0015752919    0.2738457693         -0.2638
O447       O    0.5535010899    0.9859112752    0.1953443625         -0.2573
Br448     Br    0.6065115510    1.0157382291    0.2890308212           0.729
O449       O    0.4154588823    0.9922807489    0.2747431637         -0.2564
C450       C    0.3963612499    1.0036513363    0.1910993789          0.7218
H451       H    0.4098955789    0.9614200531    0.2020976734         -0.2378
H452       H    0.4199659738    1.0320450300    0.1748542099          0.6943
H453       H    0.3996824577    0.9872363908    0.1654602246         -0.2665
O454       O    0.4258363755    0.9926608113    0.2055541672         -0.2655
H455       H    0.5205720789    0.9986354104    0.2282680158         -0.2655
H456       H    0.4257992443    0.9926608113    0.2055617352         -0.2655
C425       C    0.8058807668    0.5000000000    0.5000000000         -0.2572
C426       C    0.7766719648    0.4852853030    0.5392970630         -0.2566
C427       C    0.7264959370    0.4763843100    0.5326890102          0.7269
C428       C    0.6941192332    0.5000000000    0.5000000000          0.7283
C429       C    0.7262815018    0.5075747745    0.4671808375          0.7249
C430       C    0.7738457693    0.5144057885    0.4660478335         -0.2638
O431       O    0.6953443625    0.4897410573    0.5543655487         -0.2573
Br432     Br    0.7890308212    0.4400352123    0.5894238591           0.729
O433       O    0.7747431637    0.5432858226    0.4269717522         -0.2564
C434       C    0.6910993789    0.5412211924    0.4048415213          0.7218
H435       H    0.7020976734    0.5735440357    0.4352042145         -0.2378
H436       H    0.6748542099    0.5054410086    0.4139609116          0.6943
H437       H    0.6654602246    0.5546179196    0.4148918225         -0.2665
O438       O    0.7055541672    0.5384849112    0.4361797955         -0.2655
H439       H    0.7282680158    0.4923954498    0.5191635944         -0.2655
H440       H    0.7055617352    0.5385008610    0.4361462645         -0.2655
C409       C    1.1941192332    0.5000000000    0.5000000000         -0.2572
C410       C    1.2233280352    0.5356501539    0.4778674901         -0.2566
C411       C    1.2735040630    0.5274254693    0.4704345499          0.7269
C412       C    1.3058807668    0.5000000000    0.5000000000          0.7283
C413       C    1.2737184982    0.4693024446    0.5138612672          0.7249
C414       C    1.2261542307    0.4695304886    0.5207818486         -0.2638
O415       O    1.3046556375    0.5512997371    0.4792829596         -0.2573
Br416     Br    1.2109691788    0.5759341530    0.4236690970           0.729
O417       O    1.2252568363    0.4368738232    0.5567615471         -0.2564
C418       C    1.3089006211    0.4147682297    0.5590751057          0.7218
H419       H    1.2979023266    0.4508780018    0.5848189147         -0.2378
H420       H    1.3251457901    0.4166967929    0.5222014637          0.6943
H421       H    1.3345397754    0.4272496649    0.5702417807         -0.2665
O422       O    1.2944458328    0.4449621057    0.5502487521         -0.2655
H423       H    1.2717319842    0.5173010901    0.4887864005         -0.2655
H424       H    1.2944382648    0.4449323519    0.5502709655         -0.2655
C393       C    0.8058807668    0.5000000000    0.0000000000         -0.2572
C394       C    0.7766719648    0.5048021525   -0.0416859785         -0.2566
C395       C    0.7264959370    0.5150341738   -0.0374198587          0.7269
C396       C    0.6941192332    0.5000000000    0.0000000000          0.7283
C397       C    0.7262815018    0.5005645649    0.0336772312          0.7249
C398       C    0.7738457693    0.4942084910    0.0364243707         -0.2638
O399       O    0.6953443625    0.4968435481   -0.0552349129         -0.2573
Br400     Br    0.7890308212    0.5366261737   -0.1012468555           0.729
O401       O    0.7747431637    0.4756058991    0.0813124546         -0.2564
C402       C    0.6910993789    0.4829472065    0.1022913731          0.7218
H403       H    0.7020976734    0.4442553828    0.0806210683         -0.2378
H404       H    0.6748542099    0.5154715465    0.0848113232          0.6943
H405       H    0.6654602246    0.4675219344    0.0957689630         -0.2665
O406       O    0.7055541672    0.4780441710    0.0712183155         -0.2655
H407       H    0.7282680158    0.5027579427   -0.0204319917         -0.2655
H408       H    0.7055617352    0.4780367794    0.0712547036         -0.2655
C377       C    1.3058807668    0.5000000000    0.0000000000         -0.2572
C378       C    1.2766719648    0.4998882764    0.0419615179         -0.2566
C379       C    1.2264959370    0.4892434628    0.0388660406          0.7269
C380       C    1.1941192332    0.5000000000    0.0000000000          0.7283
C381       C    1.2262815018    0.4956739950   -0.0334029986          0.7249
C382       C    1.2738457693    0.5016831046   -0.0368435003         -0.2638
O383       O    1.1953443625    0.5093117063    0.0545357765         -0.2573
Br384     Br    1.2890308212    0.4749224213    0.1047068164           0.729
O385       O    1.2747431637    0.5151507725   -0.0835298840         -0.2564
C386       C    1.1910993789    0.5055101276   -0.1035565607          0.7218
H387       H    1.2020976734    0.5463820524   -0.0863476938         -0.2378
H388       H    1.1748542099    0.4751438763   -0.0825499995          0.6943
H389       H    1.1654602246    0.5215678808   -0.0987995219         -0.2665
O390       O    1.2055541672    0.5138562700   -0.0732264343         -0.2655
H391       H    1.2282680158    0.4995435610    0.0206122342         -0.2655
H392       H    1.2055617352    0.5138595473   -0.0732634205         -0.2655
C361       C    1.0000000000    0.5000000000   -0.3058807668         -0.2572
C362       C    1.0076874485    0.4587485200   -0.2766719648         -0.2566
C363       C    0.9966528270    0.4598120834   -0.2264959370          0.7269
C364       C    1.0000000000    0.5000000000   -0.1941192332          0.7283
C365       C    0.9895424412    0.5320174031   -0.2262815018          0.7249
C366       C    0.9948075879    0.5365145890   -0.2738457693         -0.2638
O367       O    1.0192832905    0.4481443012   -0.1953443625         -0.2573
Br368     Br    0.9948156337    0.3924568706   -0.2890308212           0.729
O369       O    0.9993655104    0.5848904285   -0.2747431637         -0.2564
C370       C    0.9861714391    0.6027769122   -0.1910993789          0.7218
H371       H    1.0295292677    0.5934625131   -0.2020976734         -0.2378
H372       H    0.9602374515    0.5764935882   -0.1748542099          0.6943
H373       H    1.0028334776    0.6010865492   -0.1654602246         -0.2665
O374       O    1.0000081244    0.5745258803   -0.2055541672         -0.2655
H375       H    1.0033816447    0.4796619319   -0.2282680158         -0.2655
H376       H    1.0000044718    0.5745628313   -0.2055617352         -0.2655
C345       C    1.0000000000    0.5000000000    0.1941192332         -0.2572
C346       C    1.0418076206    0.5035922596    0.2233280352         -0.2566
C347       C    1.0396637408    0.4927157796    0.2735040630          0.7269
C348       C    1.0000000000    0.5000000000    0.3058807668          0.7283
C349       C    0.9671091748    0.4927427101    0.2737184982          0.7249
C350       C    0.9631517326    0.4984247081    0.2261542307         -0.2638
O351       O    1.0535010899    0.5140887248    0.3046556375         -0.2573
Br352     Br    1.1065115510    0.4842617709    0.2109691788           0.729
O353       O    0.9154588823    0.5077192511    0.2252568363         -0.2564
C354       C    0.8963612499    0.4963486637    0.3089006211          0.7218
H355       H    0.9098955789    0.5385799469    0.2979023266         -0.2378
H356       H    0.9199659738    0.4679549700    0.3251457901          0.6943
H357       H    0.8996824577    0.5127636092    0.3345397754         -0.2665
O358       O    0.9258363755    0.5073391887    0.2944458328         -0.2655
H359       H    1.0205720789    0.5013645896    0.2717319842         -0.2655
H360       H    0.9257992443    0.5073391887    0.2944382648         -0.2655
C329       C    1.0000000000   -0.3058807668    0.5000000000         -0.2572
C330       C    1.0017774360   -0.2766719648    0.4580759951         -0.2566
C331       C    1.0122909733   -0.2264959370    0.4615916132          0.7269
C332       C    1.0000000000   -0.1941192332    0.5000000000          0.7283
C333       C    1.0029965530   -0.2262815018    0.5335484025          0.7249
C334       C    0.9968555982   -0.2738457693    0.5367476407         -0.2638
O335       O    0.9928606111   -0.1953443625    0.4451375546         -0.2573
Br336     Br    1.0292144918   -0.2890308212    0.3963712597           0.729
O337       O    0.9815451771   -0.2747431637    0.5828625786         -0.2564
C338       C    0.9903831976   -0.1910993789    0.6032561857          0.7218
H339       H    0.9502266543   -0.2020976734    0.5844383388         -0.2378
H340       H    1.0215594361   -0.1748542099    0.5834716719          0.6943
H341       H    0.9745269489   -0.1654602246    0.5978654315         -0.2665
O342       O    0.9832476885   -0.2055541672    0.5726186405         -0.2655
H343       H    1.0012743496   -0.2282680158    0.4794221341         -0.2655
H344       H    0.9832429456   -0.2055617352    0.5726554676         -0.2655
C313       C    1.0000000000    0.3058807668    0.5000000000         -0.2572
C314       C    1.0017774360    0.2766719648    0.5419240049         -0.2566
C315       C    1.0122909733    0.2264959370    0.5384083868          0.7269
C316       C    1.0000000000    0.1941192332    0.5000000000          0.7283
C317       C    1.0029965530    0.2262815018    0.4664515975          0.7249
C318       C    0.9968555982    0.2738457693    0.4632523593         -0.2638
O319       O    0.9928606111    0.1953443625    0.5548624454         -0.2573
Br320     Br    1.0292144918    0.2890308212    0.6036287403           0.729
O321       O    0.9815451771    0.2747431637    0.4171374214         -0.2564
C322       C    0.9903831976    0.1910993789    0.3967438143          0.7218
H323       H    0.9502266543    0.2020976734    0.4155616612         -0.2378
H324       H    1.0215594361    0.1748542099    0.4165283281          0.6943
H325       H    0.9745269489    0.1654602246    0.4021345685         -0.2665
O326       O    0.9832476885    0.2055541672    0.4273813595         -0.2655
H327       H    1.0012743496    0.2282680158    0.5205778659         -0.2655
H328       H    0.9832429456    0.2055617352    0.4273445324         -0.2655
C297       C    0.6941192332   -0.0000000000    0.5000000000         -0.2572
C298       C    0.7233280352   -0.0197790851    0.5370076919         -0.2566
C299       C    0.7735040630   -0.0089380354    0.5393240859          0.7269
C300       C    0.8058807668   -0.0000000000    0.5000000000          0.7283
C301       C    0.7737184982    0.0196330811    0.4726318293          0.7249
C302       C    0.7261542307    0.0159707552    0.4667552811         -0.2638
O303       O    0.8046556375   -0.0340346515    0.5436176717         -0.2573
Br304     Br    0.7109691788   -0.0275150043    0.6040928762           0.729
O305       O    0.7252568363    0.0262256993    0.4192596748         -0.2564
C306       C    0.8089006211    0.0442028284    0.4061893783          0.7218
H307       H    0.7979023266    0.0000556799    0.4019835937         -0.2378
H308       H    0.8251457901    0.0609948878    0.4390742011          0.6943
H309       H    0.8345397754    0.0278076047    0.4027721432         -0.2665
O310       O    0.7944458328    0.0224849253    0.4289469562         -0.2655
H311       H    0.7717319842   -0.0093621883    0.5183690490         -0.2655
H312       H    0.7944382648    0.0224995598    0.4289128306         -0.2655
C281       C    1.3058807668   -0.0000000000    0.5000000000         -0.2572
C282       C    1.2766719648    0.0047906807    0.5416872984         -0.2566
C283       C    1.2264959370   -0.0061428493    0.5398564626          0.7269
C284       C    1.1941192332   -0.0000000000    0.5000000000          0.7283
C285       C    1.2262815018   -0.0081982845    0.4673310121          0.7249
C286       C    1.2738457693   -0.0026322078    0.4632121238         -0.2638
O287       O    1.1953443625    0.0156184308    0.5530746965         -0.2573
Br288     Br    1.2890308212   -0.0126748076    0.6069193696           0.729
O289       O    1.2747431637    0.0052896960    0.4152721620         -0.2564
C290       C    1.1910993789   -0.0066243195    0.3965087387          0.7218
H291       H    1.2020976734    0.0359780092    0.4088254320         -0.2378
H292       H    1.1748542099   -0.0343288484    0.4209186528          0.6943
H293       H    1.1654602246    0.0098791844    0.3993574606         -0.2665
O294       O    1.2055541672    0.0052076298    0.4256562882         -0.2655
H295       H    1.2282680158    0.0019544571    0.5205244398         -0.2655
H296       H    1.2055617352    0.0052065641    0.4256191723         -0.2655
C265       C   -0.0000000000   -0.1941192332    0.0000000000         -0.2572
C266       C    0.0040364908   -0.2233280352   -0.0417670709         -0.2566
C267       C   -0.0068621651   -0.2735040630   -0.0397389343          0.7269
C268       C   -0.0000000000   -0.3058807668    0.0000000000          0.7283
C269       C   -0.0076065244   -0.2737184982    0.0328118184          0.7249
C270       C   -0.0019669168   -0.2261542307    0.0368294392         -0.2638
O271       O    0.0146566699   -0.3046556375   -0.0533482973         -0.2573
Br272     Br   -0.0146050732   -0.2109691788   -0.1066728371           0.729
O273       O    0.0068201040   -0.2252568363    0.0846183999         -0.2564
C274       C   -0.0047528574   -0.3089006211    0.1035940786          0.7218
H275       H    0.0376199156   -0.2979023266    0.0905094523         -0.2378
H276       H   -0.0328940177   -0.3251457901    0.0796888505          0.6943
H277       H    0.0116964665   -0.3345397754    0.1004475569         -0.2665
O278       O    0.0065503806   -0.2944458328    0.0742374529         -0.2655
H279       H    0.0015832032   -0.2717319842   -0.0205564102         -0.2655
H280       H    0.0065499859   -0.2944382648    0.0742745819         -0.2655
C249       C    0.0000000000    0.3058807668    0.0000000000         -0.2572
C250       C    0.0070499259    0.2766719648   -0.0413652029         -0.2566
C251       C   -0.0039669682    0.2264959370   -0.0401314760          0.7269
C252       C    0.0000000000    0.1941192332    0.0000000000          0.7283
C253       C   -0.0099622098    0.2262815018    0.0321749750          0.7249
C254       C   -0.0046282881    0.2738457693    0.0365903718         -0.2638
O255       O    0.0184807391    0.1953443625   -0.0521471099         -0.2573
Br256     Br   -0.0068433916    0.2890308212   -0.1074503157           0.729
O257       O    0.0006756443    0.2747431637    0.0848901109         -0.2564
C258       C   -0.0122408254    0.1910993789    0.1029780800          0.7218
H259       H    0.0309680970    0.2020976734    0.0929956772         -0.2378
H260       H   -0.0385773379    0.1748542099    0.0770981083          0.6943
H261       H    0.0043931427    0.1654602246    0.1010307840         -0.2665
O262       O    0.0011582325    0.2055541672    0.0745168799         -0.2655
H263       H    0.0030673779    0.2282680158   -0.0203878328         -0.2655
H264       H    0.0011551506    0.2055617352    0.0745538830         -0.2655
C233       C   -0.3058807668   -0.0000000000    0.0000000000         -0.2572
C234       C   -0.2766719648    0.0273218354   -0.0318480577         -0.2566
C235       C   -0.2264959370    0.0172393619   -0.0364565029          0.7269
C236       C   -0.1941192332   -0.0000000000    0.0000000000          0.7283
C237       C   -0.2262815018   -0.0250924282    0.0224687490          0.7249
C238       C   -0.2738457693   -0.0227891729    0.0289987923         -0.2638
O239       O   -0.1953443625    0.0426703253   -0.0352150838         -0.2573
Br240     Br   -0.2890308212    0.0493976064   -0.0956675432           0.729
O241       O   -0.2747431637   -0.0430832700    0.0731479273         -0.2564
C242       C   -0.1910993789   -0.0634636623    0.0820163785          0.7218
H243       H   -0.2020976734   -0.0212739894    0.0956798640         -0.2378
H244       H   -0.1748542099   -0.0727382383    0.0462761061          0.6943
H245       H   -0.1654602246   -0.0481970555    0.0889019846         -0.2665
O246       O   -0.2055541672   -0.0373340043    0.0645002250         -0.2655
H247       H   -0.2282680158    0.0131168876   -0.0159065959         -0.2655
H248       H   -0.2055617352   -0.0373556795    0.0645303730         -0.2655
C217       C    0.1941192332   -0.0000000000    0.0000000000         -0.2572
C218       C    0.2233280352    0.0177626709    0.0380166936         -0.2566
C219       C    0.2735040630    0.0261158231    0.0307284231          0.7269
C220       C    0.3058807668   -0.0000000000    0.0000000000          0.7283
C221       C    0.2737184982   -0.0101349383   -0.0321209848          0.7249
C222       C    0.2261542307   -0.0170339468   -0.0327127041         -0.2638
O223       O    0.3046556375    0.0145070047    0.0533891900         -0.2573
Br224     Br    0.2109691788    0.0668185317    0.0844256250           0.729
O225       O    0.2252568363   -0.0489005947   -0.0693939425         -0.2564
C226       C    0.3089006211   -0.0485845640   -0.0916180273          0.7218
H227       H    0.2979023266   -0.0784168020   -0.0588049671         -0.2378
H228       H    0.3251457901   -0.0121975077   -0.0853437175          0.6943
H229       H    0.3345397754   -0.0611485081   -0.0805442672         -0.2665
O230       O    0.2944458328   -0.0433896846   -0.0605924267         -0.2655
H231       H    0.2717319842    0.0090895935    0.0185054539         -0.2655
H232       H    0.2944382648   -0.0434082246   -0.0606245979         -0.2655
C201       C    0.0000000000    0.0000000000   -0.1941192332         -0.2572
C202       C    0.0419477305    0.0010813770   -0.2233280352         -0.2566
C203       C    0.0386070902    0.0116518150   -0.2735040630          0.7269
C204       C    0.0000000000    0.0000000000   -0.3058807668          0.7283
C205       C   -0.0334940476    0.0035529443   -0.2737184982          0.7249
C206       C   -0.0367947668   -0.0025340668   -0.2261542307         -0.2638
O207       O    0.0547363960   -0.0080489595   -0.3046556375         -0.2573
Br208     Br    0.1040993404    0.0274905380   -0.2109691788           0.729
O209       O   -0.0831574604   -0.0170770078   -0.2252568363         -0.2564
C210       C   -0.1034015736   -0.0079017312   -0.3089006211          0.7218
H211       H   -0.0852527982   -0.0483650639   -0.2979023266         -0.2378
H212       H   -0.0831023518    0.0229418488   -0.3251457901          0.6943
H213       H   -0.0982747286   -0.0238452664   -0.3345397754         -0.2665
O214       O   -0.0728866767   -0.0155447499   -0.2944458328         -0.2655
H215       H    0.0205961820    0.0009326425   -0.2717319842         -0.2655
H216       H   -0.0729235774   -0.0155488810   -0.2944382648         -0.2655
C185       C    0.0000000000    0.0000000000    0.3058807668         -0.2572
C186       C    0.0394229212   -0.0143741002    0.2766719648         -0.2566
C187       C    0.0401905871   -0.0033149535    0.2264959370          0.7269
C188       C   -0.0000000000    0.0000000000    0.1941192332          0.7283
C189       C   -0.0298587867    0.0155861315    0.2262815018          0.7249
C190       C   -0.0351614467    0.0111332395    0.2738457693         -0.2638
O191       O    0.0479733215   -0.0275575619    0.1953443625         -0.2573
Br192     Br    0.1069291481   -0.0125920461    0.2890308212           0.729
O193       O   -0.0836275601    0.0146020070    0.2747431637         -0.2564
C194       C   -0.0990977232    0.0305608250    0.1910993789          0.7218
H195       H   -0.0970487662   -0.0137388490    0.2020976734         -0.2378
H196       H   -0.0689033439    0.0518136903    0.1748542099          0.6943
H197       H   -0.1001736286    0.0138478575    0.1654602246         -0.2665
O198       O   -0.0735102442    0.0122617654    0.2055541672         -0.2655
H199       H    0.0195037899   -0.0066839144    0.2282680158         -0.2655
H200       H   -0.0735460897    0.0122714517    0.2055617352         -0.2655
loop_
_geom_bond_atom_site_label_1
_geom_bond_atom_site_label_2
_geom_bond_distance
_geom_bond_site_symmetry_2
_ccdc_geom_bond_type
Zn1          O5 1.942       .   S
Zn1          O6 1.922       .   S
Zn1         O10 1.922       .   S
Zn1         O17 1.922       .   S
Zn2          O5 1.942       .   S
Zn2          O7 1.922       .   S
Zn2          O9 1.922       .   S
Zn2         O13 1.922       .   S
Zn3          O5 1.942       .   S
Zn3          O8 1.922       .   S
Zn3         O11 1.922       .   S
Zn3         O14 1.922       .   S
Zn4          O5 1.942       .   S
Zn4         O12 1.922       .   S
Zn4         O15 1.922       .   S
Zn4         O16 1.922       .   S
O6          C18 1.304       .   A
O7          C19 1.304       .   A
O8          C20 1.304       .   A
O9          C18 1.304       .   A
O10         C20 1.304       .   A
O11         C19 1.304       .   A
O12         C21 1.304       .   A
O13         C22 1.304       .   A
O14         C21 1.304       .   A
O15         C22 1.304       .   A
O16         C23 1.304       .   A
O17         C23 1.304       .   A
C18        C188 1.540       .   S
C19        C217 1.540       .   S
C20        C265 1.540       .   S
C21        C201 1.540       .   S
C22        C252 1.540       .   S
C23        C236 1.540       .   S
Zn24        O28 1.942       .   S
Zn24        O29 1.922       .   S
Zn24        O33 1.922       .   S
Zn24        O40 1.922       .   S
Zn25        O28 1.942       .   S
Zn25        O30 1.922       .   S
Zn25        O32 1.922       .   S
Zn25        O36 1.922       .   S
Zn26        O28 1.942       .   S
Zn26        O31 1.922       .   S
Zn26        O34 1.922       .   S
Zn26        O37 1.922       .   S
Zn27        O28 1.942       .   S
Zn27        O35 1.922       .   S
Zn27        O38 1.922       .   S
Zn27        O39 1.922       .   S
O29         C41 1.304       .   A
O30         C42 1.304       .   A
O31         C43 1.304       .   A
O32         C41 1.304       .   A
O33         C43 1.304       .   A
O34         C42 1.304       .   A
O35         C44 1.304       .   A
O36         C45 1.304       .   A
O37         C44 1.304       .   A
O38         C45 1.304       .   A
O39         C46 1.304       .   A
O40         C46 1.304       .   A
C41        C185 1.540   1_655   S
C42        C284 1.540       .   S
C43        C316 1.540       .   S
C44        C204 1.540   1_656   S
C45        C332 1.540       .   S
C46        C300 1.540       .   S
Zn47        O51 1.942       .   S
Zn47        O52 1.922       .   S
Zn47        O56 1.922       .   S
Zn47        O63 1.922       .   S
Zn48        O51 1.942       .   S
Zn48        O53 1.922       .   S
Zn48        O55 1.922       .   S
Zn48        O59 1.922       .   S
Zn49        O51 1.942       .   S
Zn49        O54 1.922       .   S
Zn49        O57 1.922       .   S
Zn49        O60 1.922       .   S
Zn50        O51 1.942       .   S
Zn50        O58 1.922       .   S
Zn50        O61 1.922       .   S
Zn50        O62 1.922       .   S
O52         C64 1.304       .   A
O53         C65 1.304       .   A
O54         C66 1.304       .   A
O55         C64 1.304       .   A
O56         C66 1.304       .   A
O57         C65 1.304       .   A
O58         C67 1.304       .   A
O59         C68 1.304       .   A
O60         C67 1.304       .   A
O61         C68 1.304       .   A
O62         C69 1.304       .   A
O63         C69 1.304       .   A
C64        C249 1.540   1_655   S
C65        C345 1.540       .   S
C66        C380 1.540       .   S
C67        C268 1.540   1_665   S
C68        C393 1.540       .   S
C69        C364 1.540       .   S
Zn70        O74 1.942       .   S
Zn70        O75 1.922       .   S
Zn70        O79 1.922       .   S
Zn70        O86 1.922       .   S
Zn71        O74 1.942       .   S
Zn71        O76 1.922       .   S
Zn71        O78 1.922       .   S
Zn71        O82 1.922       .   S
Zn72        O74 1.942       .   S
Zn72        O77 1.922       .   S
Zn72        O80 1.922       .   S
Zn72        O83 1.922       .   S
Zn73        O74 1.942       .   S
Zn73        O81 1.922       .   S
Zn73        O84 1.922       .   S
Zn73        O85 1.922       .   S
O75         C87 1.304       .   A
O76         C88 1.304       .   A
O77         C89 1.304       .   A
O78         C87 1.304       .   A
O79         C89 1.304       .   A
O80         C88 1.304       .   A
O81         C90 1.304       .   A
O82         C91 1.304       .   A
O83         C90 1.304       .   A
O84         C91 1.304       .   A
O85         C92 1.304       .   A
O86         C92 1.304       .   A
C87        C313 1.540       .   S
C88        C348 1.540       .   S
C89        C425 1.540       .   S
C90        C329 1.540   1_565   S
C91        C409 1.540       .   S
C92        C361 1.540   1_556   S
Zn93        O97 1.942       .   S
Zn93        O98 1.922       .   S
Zn93       O102 1.922       .   S
Zn93       O109 1.922       .   S
Zn94        O97 1.942       .   S
Zn94        O99 1.922       .   S
Zn94       O101 1.922       .   S
Zn94       O105 1.922       .   S
Zn95        O97 1.942       .   S
Zn95       O100 1.922       .   S
Zn95       O103 1.922       .   S
Zn95       O106 1.922       .   S
Zn96        O97 1.942       .   S
Zn96       O104 1.922       .   S
Zn96       O107 1.922       .   S
Zn96       O108 1.922       .   S
O98        C110 1.304       .   A
O99        C111 1.304       .   A
O100       C112 1.304       .   A
O101       C110 1.304       .   A
O102       C112 1.304       .   A
O103       C111 1.304       .   A
O104       C113 1.304       .   A
O105       C114 1.304       .   A
O106       C113 1.304       .   A
O107       C114 1.304       .   A
O108       C115 1.304       .   A
O109       C115 1.304       .   A
C110       C220 1.540   1_565   S
C111       C444 1.540       .   S
C112       C489 1.540       .   S
C113       C233 1.540   1_665   S
C114       C476 1.540       .   S
C115       C457 1.540       .   S
Zn116      O120 1.942       .   S
Zn116      O121 1.922       .   S
Zn116      O125 1.922       .   S
Zn116      O132 1.922       .   S
Zn117      O120 1.942       .   S
Zn117      O122 1.922       .   S
Zn117      O124 1.922       .   S
Zn117      O128 1.922       .   S
Zn118      O120 1.942       .   S
Zn118      O123 1.922       .   S
Zn118      O126 1.922       .   S
Zn118      O129 1.922       .   S
Zn119      O120 1.942       .   S
Zn119      O127 1.922       .   S
Zn119      O130 1.922       .   S
Zn119      O131 1.922       .   S
O121       C133 1.304       .   A
O122       C134 1.304       .   A
O123       C135 1.304       .   A
O124       C133 1.304       .   A
O125       C135 1.304       .   A
O126       C134 1.304       .   A
O127       C136 1.304       .   A
O128       C137 1.304       .   A
O129       C136 1.304       .   A
O130       C137 1.304       .   A
O131       C138 1.304       .   A
O132       C138 1.304       .   A
C133       C281 1.540   1_465   S
C134       C441 1.540       .   S
C135       C508 1.540       .   S
C136       C297 1.540   1_565   S
C137       C521 1.540       .   S
C138       C460 1.540   1_556   S
Zn139      O143 1.942       .   S
Zn139      O144 1.922       .   S
Zn139      O148 1.922       .   S
Zn139      O155 1.922       .   S
Zn140      O143 1.942       .   S
Zn140      O145 1.922       .   S
Zn140      O147 1.922       .   S
Zn140      O151 1.922       .   S
Zn141      O143 1.942       .   S
Zn141      O146 1.922       .   S
Zn141      O149 1.922       .   S
Zn141      O152 1.922       .   S
Zn142      O143 1.942       .   S
Zn142      O150 1.922       .   S
Zn142      O153 1.922       .   S
Zn142      O154 1.922       .   S
O144       C156 1.304       .   A
O145       C157 1.304       .   A
O146       C158 1.304       .   A
O147       C156 1.304       .   A
O148       C158 1.304       .   A
O149       C157 1.304       .   A
O150       C159 1.304       .   A
O151       C160 1.304       .   A
O152       C159 1.304       .   A
O153       C160 1.304       .   A
O154       C161 1.304       .   A
O155       C161 1.304       .   A
C156       C492 1.540       .   S
C157       C377 1.540   1_455   S
C158       C556 1.540       .   S
C159       C473 1.540   1_545   S
C160       C540 1.540       .   S
C161       C396 1.540       .   S
Zn162      O166 1.942       .   S
Zn162      O167 1.922       .   S
Zn162      O171 1.922       .   S
Zn162      O178 1.922       .   S
Zn163      O166 1.942       .   S
Zn163      O168 1.922       .   S
Zn163      O170 1.922       .   S
Zn163      O174 1.922       .   S
Zn164      O166 1.942       .   S
Zn164      O169 1.922       .   S
Zn164      O172 1.922       .   S
Zn164      O175 1.922       .   S
Zn165      O166 1.942       .   S
Zn165      O173 1.922       .   S
Zn165      O176 1.922       .   S
Zn165      O177 1.922       .   S
O167       C179 1.304       .   A
O168       C180 1.304       .   A
O169       C181 1.304       .   A
O170       C179 1.304       .   A
O171       C181 1.304       .   A
O172       C180 1.304       .   A
O173       C182 1.304       .   A
O174       C183 1.304       .   A
O175       C182 1.304       .   A
O176       C183 1.304       .   A
O177       C184 1.304       .   A
O178       C184 1.304       .   A
C179       C524 1.540       .   S
C180       C553 1.540   1_556   S
C181       C412 1.540   1_455   S
C182       C505 1.540   1_545   S
C183       C428 1.540       .   S
C184       C537 1.540       .   S
C553       C554 0.047       .   A
C553       C558 0.045       .   A
C554       C555 0.047       .   A
C554      Br560 0.063       .   A
C555       C556 0.048       .   A
C555       O559 0.037       .   A
C556       C557 0.043       .   A
C557       C558 0.044       .   A
C557       O566 0.045       .   A
C558       O561 0.045       .   A
O559       H567 0.045       .   A
O561       H568 0.065       .   A
C562       H563 0.042       .   A
C562       H564 0.037       .   A
C562       H565 0.028       .   A
C562       O566 0.032       .   A
C537       C538 0.047       .   A
C537       C542 0.045       .   A
C538       C539 0.047       .   A
C538      Br544 0.063       .   A
C539       C540 0.048       .   A
C539       O543 0.037       .   A
C540       C541 0.043       .   A
C541       C542 0.044       .   A
C541       O550 0.045       .   A
C542       O545 0.045       .   A
O543       H551 0.045       .   A
O545       H552 0.065       .   A
C546       H547 0.042       .   A
C546       H548 0.037       .   A
C546       H549 0.028       .   A
C546       O550 0.032       .   A
C521       C522 0.047       .   A
C521       C526 0.045       .   A
C522       C523 0.047       .   A
C522      Br528 0.063       .   A
C523       C524 0.048       .   A
C523       O527 0.037       .   A
C524       C525 0.043       .   A
C525       C526 0.044       .   A
C525       O534 0.045       .   A
C526       O529 0.045       .   A
O527       H535 0.045       .   A
O529       H536 0.065       .   A
C530       H531 0.042       .   A
C530       H532 0.037       .   A
C530       H533 0.028       .   A
C530       O534 0.032       .   A
C505       C506 0.047       .   A
C505       C510 0.045       .   A
C506       C507 0.047       .   A
C506      Br512 0.063       .   A
C507       C508 0.048       .   A
C507       O511 0.037       .   A
C508       C509 0.043       .   A
C509       C510 0.044       .   A
C509       O518 0.045       .   A
C510       O513 0.045       .   A
O511       H519 0.045       .   A
O513       H520 0.065       .   A
C514       H515 0.042       .   A
C514       H516 0.037       .   A
C514       H517 0.028       .   A
C514       O518 0.032       .   A
C489       C490 0.047       .   A
C489       C494 0.045       .   A
C490       C491 0.047       .   A
C490      Br496 0.063       .   A
C491       C492 0.048       .   A
C491       O495 0.037       .   A
C492       C493 0.043       .   A
C493       C494 0.044       .   A
C493       O502 0.045       .   A
C494       O497 0.045       .   A
O495       H503 0.045       .   A
O497       H504 0.065       .   A
C498       H499 0.042       .   A
C498       H500 0.037       .   A
C498       H501 0.028       .   A
C498       O502 0.032       .   A
C473       C474 0.047       .   A
C473       C478 0.045       .   A
C474       C475 0.047       .   A
C474      Br480 0.063       .   A
C475       C476 0.048       .   A
C475       O479 0.037       .   A
C476       C477 0.043       .   A
C477       C478 0.044       .   A
C477       O486 0.045       .   A
C478       O481 0.045       .   A
O479       H487 0.045       .   A
O481       H488 0.065       .   A
C482       H483 0.042       .   A
C482       H484 0.037       .   A
C482       H485 0.028       .   A
C482       O486 0.032       .   A
C457       C458 0.047       .   A
C457       C462 0.045       .   A
C458       C459 0.047       .   A
C458      Br464 0.063       .   A
C459       C460 0.048       .   A
C459       O463 0.037       .   A
C460       C461 0.043       .   A
C461       C462 0.044       .   A
C461       O470 0.045       .   A
C462       O465 0.045       .   A
O463       H471 0.045       .   A
O465       H472 0.065       .   A
C466       H467 0.042       .   A
C466       H468 0.037       .   A
C466       H469 0.028       .   A
C466       O470 0.032       .   A
C441       C442 0.047       .   A
C441       C446 0.045       .   A
C442       C443 0.047       .   A
C442      Br448 0.063       .   A
C443       C444 0.048       .   A
C443       O447 0.037       .   A
C444       C445 0.043       .   A
C445       C446 0.044       .   A
C445       O454 0.045       .   A
C446       O449 0.045       .   A
O447       H455 0.045       .   A
O449       H456 0.065       .   A
C450       H451 0.042       .   A
C450       H452 0.037       .   A
C450       H453 0.028       .   A
C450       O454 0.032       .   A
C425       C426 0.047       .   A
C425       C430 0.045       .   A
C426       C427 0.047       .   A
C426      Br432 0.063       .   A
C427       C428 0.048       .   A
C427       O431 0.037       .   A
C428       C429 0.043       .   A
C429       C430 0.044       .   A
C429       O438 0.045       .   A
C430       O433 0.045       .   A
O431       H439 0.045       .   A
O433       H440 0.065       .   A
C434       H435 0.042       .   A
C434       H436 0.037       .   A
C434       H437 0.028       .   A
C434       O438 0.032       .   A
C409       C410 0.047       .   A
C409       C414 0.045       .   A
C410       C411 0.047       .   A
C410      Br416 0.063       .   A
C411       C412 0.048       .   A
C411       O415 0.037       .   A
C412       C413 0.043       .   A
C413       C414 0.044       .   A
C413       O422 0.045       .   A
C414       O417 0.045       .   A
O415       H423 0.045       .   A
O417       H424 0.065       .   A
C418       H419 0.042       .   A
C418       H420 0.037       .   A
C418       H421 0.028       .   A
C418       O422 0.032       .   A
C393       C394 0.047       .   A
C393       C398 0.045       .   A
C394       C395 0.047       .   A
C394      Br400 0.063       .   A
C395       C396 0.048       .   A
C395       O399 0.037       .   A
C396       C397 0.043       .   A
C397       C398 0.044       .   A
C397       O406 0.045       .   A
C398       O401 0.045       .   A
O399       H407 0.045       .   A
O401       H408 0.065       .   A
C402       H403 0.042       .   A
C402       H404 0.037       .   A
C402       H405 0.028       .   A
C402       O406 0.032       .   A
C377       C378 0.047       .   A
C377       C382 0.045       .   A
C378       C379 0.047       .   A
C378      Br384 0.063       .   A
C379       C380 0.048       .   A
C379       O383 0.037       .   A
C380       C381 0.043       .   A
C381       C382 0.044       .   A
C381       O390 0.045       .   A
C382       O385 0.045       .   A
O383       H391 0.045       .   A
O385       H392 0.065       .   A
C386       H387 0.042       .   A
C386       H388 0.037       .   A
C386       H389 0.028       .   A
C386       O390 0.032       .   A
C361       C362 0.047       .   A
C361       C366 0.045       .   A
C362       C363 0.047       .   A
C362      Br368 0.063       .   A
C363       C364 0.048       .   A
C363       O367 0.037       .   A
C364       C365 0.043       .   A
C365       C366 0.044       .   A
C365       O374 0.045       .   A
C366       O369 0.045       .   A
O367       H375 0.045       .   A
O369       H376 0.065       .   A
C370       H371 0.042       .   A
C370       H372 0.037       .   A
C370       H373 0.028       .   A
C370       O374 0.032       .   A
C345       C346 0.047       .   A
C345       C350 0.045       .   A
C346       C347 0.047       .   A
C346      Br352 0.063       .   A
C347       C348 0.048       .   A
C347       O351 0.037       .   A
C348       C349 0.043       .   A
C349       C350 0.044       .   A
C349       O358 0.045       .   A
C350       O353 0.045       .   A
O351       H359 0.045       .   A
O353       H360 0.065       .   A
C354       H355 0.042       .   A
C354       H356 0.037       .   A
C354       H357 0.028       .   A
C354       O358 0.032       .   A
C329       C330 0.047       .   A
C329       C334 0.045       .   A
C330       C331 0.047       .   A
C330      Br336 0.063       .   A
C331       C332 0.048       .   A
C331       O335 0.037       .   A
C332       C333 0.043       .   A
C333       C334 0.044       .   A
C333       O342 0.045       .   A
C334       O337 0.045       .   A
O335       H343 0.045       .   A
O337       H344 0.065       .   A
C338       H339 0.042       .   A
C338       H340 0.037       .   A
C338       H341 0.028       .   A
C338       O342 0.032       .   A
C313       C314 0.047       .   A
C313       C318 0.045       .   A
C314       C315 0.047       .   A
C314      Br320 0.063       .   A
C315       C316 0.048       .   A
C315       O319 0.037       .   A
C316       C317 0.043       .   A
C317       C318 0.044       .   A
C317       O326 0.045       .   A
C318       O321 0.045       .   A
O319       H327 0.045       .   A
O321       H328 0.065       .   A
C322       H323 0.042       .   A
C322       H324 0.037       .   A
C322       H325 0.028       .   A
C322       O326 0.032       .   A
C297       C298 0.047       .   A
C297       C302 0.045       .   A
C298       C299 0.047       .   A
C298      Br304 0.063       .   A
C299       C300 0.048       .   A
C299       O303 0.037       .   A
C300       C301 0.043       .   A
C301       C302 0.044       .   A
C301       O310 0.045       .   A
C302       O305 0.045       .   A
O303       H311 0.045       .   A
O305       H312 0.065       .   A
C306       H307 0.042       .   A
C306       H308 0.037       .   A
C306       H309 0.028       .   A
C306       O310 0.032       .   A
C281       C282 0.047       .   A
C281       C286 0.045       .   A
C282       C283 0.047       .   A
C282      Br288 0.063       .   A
C283       C284 0.048       .   A
C283       O287 0.037       .   A
C284       C285 0.043       .   A
C285       C286 0.044       .   A
C285       O294 0.045       .   A
C286       O289 0.045       .   A
O287       H295 0.045       .   A
O289       H296 0.065       .   A
C290       H291 0.042       .   A
C290       H292 0.037       .   A
C290       H293 0.028       .   A
C290       O294 0.032       .   A
C265       C266 0.047       .   A
C265       C270 0.045       .   A
C266       C267 0.047       .   A
C266      Br272 0.063       .   A
C267       C268 0.048       .   A
C267       O271 0.037       .   A
C268       C269 0.043       .   A
C269       C270 0.044       .   A
C269       O278 0.045       .   A
C270       O273 0.045       .   A
O271       H279 0.045       .   A
O273       H280 0.065       .   A
C274       H275 0.042       .   A
C274       H276 0.037       .   A
C274       H277 0.028       .   A
C274       O278 0.032       .   A
C249       C250 0.047       .   A
C249       C254 0.045       .   A
C250       C251 0.047       .   A
C250      Br256 0.063       .   A
C251       C252 0.048       .   A
C251       O255 0.037       .   A
C252       C253 0.043       .   A
C253       C254 0.044       .   A
C253       O262 0.045       .   A
C254       O257 0.045       .   A
O255       H263 0.045       .   A
O257       H264 0.065       .   A
C258       H259 0.042       .   A
C258       H260 0.037       .   A
C258       H261 0.028       .   A
C258       O262 0.032       .   A
C233       C234 0.047       .   A
C233       C238 0.045       .   A
C234       C235 0.047       .   A
C234      Br240 0.063       .   A
C235       C236 0.048       .   A
C235       O239 0.037       .   A
C236       C237 0.043       .   A
C237       C238 0.044       .   A
C237       O246 0.045       .   A
C238       O241 0.045       .   A
O239       H247 0.045       .   A
O241       H248 0.065       .   A
C242       H243 0.042       .   A
C242       H244 0.037       .   A
C242       H245 0.028       .   A
C242       O246 0.032       .   A
C217       C218 0.047       .   A
C217       C222 0.045       .   A
C218       C219 0.047       .   A
C218      Br224 0.063       .   A
C219       C220 0.048       .   A
C219       O223 0.037       .   A
C220       C221 0.043       .   A
C221       C222 0.044       .   A
C221       O230 0.045       .   A
C222       O225 0.045       .   A
O223       H231 0.045       .   A
O225       H232 0.065       .   A
C226       H227 0.042       .   A
C226       H228 0.037       .   A
C226       H229 0.028       .   A
C226       O230 0.032       .   A
C201       C202 0.047       .   A
C201       C206 0.045       .   A
C202       C203 0.047       .   A
C202      Br208 0.063       .   A
C203       C204 0.048       .   A
C203       O207 0.037       .   A
C204       C205 0.043       .   A
C205       C206 0.044       .   A
C205       O214 0.045       .   A
C206       O209 0.045       .   A
O207       H215 0.045       .   A
O209       H216 0.065       .   A
C210       H211 0.042       .   A
C210       H212 0.037       .   A
C210       H213 0.028       .   A
C210       O214 0.032       .   A
C185       C186 0.047       .   A
C185       C190 0.045       .   A
C186       C187 0.047       .   A
C186      Br192 0.063       .   A
C187       C188 0.048       .   A
C187       O191 0.037       .   A
C188       C189 0.043       .   A
C189       C190 0.044       .   A
C189       O198 0.045       .   A
C190       O193 0.045       .   A
O191       H199 0.045       .   A
O193       H200 0.065       .   A
C194       H195 0.042       .   A
C194       H196 0.037       .   A
C194       H197 0.028       .   A
C194       O198 0.032       .   A
