data_pcu_v1-6c_Zn_1_Ch_1-50_fer_tobacco
_audit_creation_date              2021-02-03
_audit_creation_method            'tobacco_3.0'
_symmetry_space_group_name_H-M    'P1'
_symmetry_Int_Tables_number       1
_symmetry_cell_setting            triclinic
loop_
_symmetry_equiv_pos_as_xyz
  x,y,z
_cell_length_a                    31.13833967252079
_cell_length_b                    31.13833967252079
_cell_length_c                    31.13833967252079
_cell_angle_alpha                 90.0
_cell_angle_beta                  90.0
_cell_angle_gamma                 90.0
loop_
_atom_site_label
_atom_site_type_symbol
_atom_site_fract_x
_atom_site_fract_y
_atom_site_fract_z
_atom_site_charge
Zn1       Zn   -0.0360070579   -0.0360070579    0.0360070579          1.4972
Zn2       Zn    0.0360070579    0.0360070579    0.0360070579          1.4936
Zn3       Zn    0.0360070579   -0.0360070579   -0.0360070579          1.4911
Zn4       Zn   -0.0360070579    0.0360070579   -0.0360070579          1.4948
O5         O    0.0000000000    0.0000000000    0.0000000000         -2.1643
O6         O   -0.0264625542   -0.0264625542    0.0962350604         -1.0707
O7         O    0.0962350604    0.0264625542    0.0264625542         -1.0689
O8         O    0.0264625542   -0.0962350604   -0.0264625542          -1.064
O9         O    0.0264625542    0.0264625542    0.0962350604         -1.0708
O10        O   -0.0264625542   -0.0962350604    0.0264625542         -1.0668
O11        O    0.0962350604   -0.0264625542   -0.0264625542         -1.0726
O12        O   -0.0264625542    0.0264625542   -0.0962350604         -1.0665
O13        O    0.0264625542    0.0962350604    0.0264625542         -1.0741
O14        O    0.0264625542   -0.0264625542   -0.0962350604          -1.068
O15        O   -0.0264625542    0.0962350604   -0.0264625542         -1.0727
O16        O   -0.0962350604    0.0264625542   -0.0264625542         -1.0718
O17        O   -0.0962350604   -0.0264625542    0.0264625542         -1.0697
C18        C   -0.0000000000   -0.0000000000    0.1150607270          0.4482
C19        C    0.1150607270   -0.0000000000   -0.0000000000          0.4531
C20        C   -0.0000000000   -0.1150607270    0.0000000000          0.4427
C21        C    0.0000000000    0.0000000000   -0.1150607270          0.4465
C22        C    0.0000000000    0.1150607270   -0.0000000000          0.4579
C23        C   -0.1150607270    0.0000000000    0.0000000000          0.4484
Zn24      Zn    0.9639929421    0.0360070579    0.4639929421          1.4972
Zn25      Zn    1.0360070579   -0.0360070579    0.4639929421          1.4936
Zn26      Zn    1.0360070579    0.0360070579    0.5360070579          1.4911
Zn27      Zn    0.9639929421   -0.0360070579    0.5360070579          1.4948
O28        O    1.0000000000    0.0000000000    0.5000000000         -2.1643
O29        O    0.9735374458    0.0264625542    0.4037649396         -1.0707
O30        O    1.0962350604   -0.0264625542    0.4735374458         -1.0689
O31        O    1.0264625542    0.0962350604    0.5264625542          -1.064
O32        O    1.0264625542   -0.0264625542    0.4037649396         -1.0708
O33        O    0.9735374458    0.0962350604    0.4735374458         -1.0668
O34        O    1.0962350604    0.0264625542    0.5264625542         -1.0726
O35        O    0.9735374458   -0.0264625542    0.5962350604         -1.0665
O36        O    1.0264625542   -0.0962350604    0.4735374458         -1.0741
O37        O    1.0264625542    0.0264625542    0.5962350604          -1.068
O38        O    0.9735374458   -0.0962350604    0.5264625542         -1.0727
O39        O    0.9037649396   -0.0264625542    0.5264625542         -1.0718
O40        O    0.9037649396    0.0264625542    0.4735374458         -1.0697
C41        C    1.0000000000    0.0000000000    0.3849392730          0.4482
C42        C    1.1150607270    0.0000000000    0.5000000000          0.4531
C43        C    1.0000000000    0.1150607270    0.5000000000          0.4427
C44        C    1.0000000000    0.0000000000    0.6150607270          0.4465
C45        C    1.0000000000   -0.1150607270    0.5000000000          0.4579
C46        C    0.8849392730    0.0000000000    0.5000000000          0.4484
Zn47      Zn    1.0360070579    0.4639929421   -0.0360070579          1.4972
Zn48      Zn    0.9639929421    0.4639929421    0.0360070579          1.4936
Zn49      Zn    1.0360070579    0.5360070579    0.0360070579          1.4911
Zn50      Zn    0.9639929421    0.5360070579   -0.0360070579          1.4948
O51        O    1.0000000000    0.5000000000    0.0000000000         -2.1643
O52        O    1.0264625542    0.4037649396   -0.0264625542         -1.0707
O53        O    0.9735374458    0.4735374458    0.0962350604         -1.0689
O54        O    1.0962350604    0.5264625542    0.0264625542          -1.064
O55        O    0.9735374458    0.4037649396    0.0264625542         -1.0708
O56        O    1.0962350604    0.4735374458   -0.0264625542         -1.0668
O57        O    1.0264625542    0.5264625542    0.0962350604         -1.0726
O58        O    0.9735374458    0.5962350604   -0.0264625542         -1.0665
O59        O    0.9037649396    0.4735374458    0.0264625542         -1.0741
O60        O    1.0264625542    0.5962350604    0.0264625542          -1.068
O61        O    0.9037649396    0.5264625542   -0.0264625542         -1.0727
O62        O    0.9735374458    0.5264625542   -0.0962350604         -1.0718
O63        O    1.0264625542    0.4735374458   -0.0962350604         -1.0697
C64        C    1.0000000000    0.3849392730    0.0000000000          0.4482
C65        C    1.0000000000    0.5000000000    0.1150607270          0.4531
C66        C    1.1150607270    0.5000000000    0.0000000000          0.4427
C67        C    1.0000000000    0.6150607270    0.0000000000          0.4465
C68        C    0.8849392730    0.5000000000    0.0000000000          0.4579
C69        C    1.0000000000    0.5000000000   -0.1150607270          0.4484
Zn70      Zn    0.9639929421    0.4639929421    0.5360070579          1.4972
Zn71      Zn    1.0360070579    0.4639929421    0.4639929421          1.4936
Zn72      Zn    0.9639929421    0.5360070579    0.4639929421          1.4911
Zn73      Zn    1.0360070579    0.5360070579    0.5360070579          1.4948
O74        O    1.0000000000    0.5000000000    0.5000000000         -2.1643
O75        O    0.9735374458    0.4037649396    0.5264625542         -1.0707
O76        O    1.0264625542    0.4735374458    0.4037649396         -1.0689
O77        O    0.9037649396    0.5264625542    0.4735374458          -1.064
O78        O    1.0264625542    0.4037649396    0.4735374458         -1.0708
O79        O    0.9037649396    0.4735374458    0.5264625542         -1.0668
O80        O    0.9735374458    0.5264625542    0.4037649396         -1.0726
O81        O    1.0264625542    0.5962350604    0.5264625542         -1.0665
O82        O    1.0962350604    0.4735374458    0.4735374458         -1.0741
O83        O    0.9735374458    0.5962350604    0.4735374458          -1.068
O84        O    1.0962350604    0.5264625542    0.5264625542         -1.0727
O85        O    1.0264625542    0.5264625542    0.5962350604         -1.0718
O86        O    0.9735374458    0.4735374458    0.5962350604         -1.0697
C87        C    1.0000000000    0.3849392730    0.5000000000          0.4482
C88        C    1.0000000000    0.5000000000    0.3849392730          0.4531
C89        C    0.8849392730    0.5000000000    0.5000000000          0.4427
C90        C    1.0000000000    0.6150607270    0.5000000000          0.4465
C91        C    1.1150607270    0.5000000000    0.5000000000          0.4579
C92        C    1.0000000000    0.5000000000    0.6150607270          0.4484
Zn93      Zn    0.4639929421    0.9639929421   -0.0360070579          1.4972
Zn94      Zn    0.4639929421    1.0360070579    0.0360070579          1.4936
Zn95      Zn    0.5360070579    0.9639929421    0.0360070579          1.4911
Zn96      Zn    0.5360070579    1.0360070579   -0.0360070579          1.4948
O97        O    0.5000000000    1.0000000000    0.0000000000         -2.1643
O98        O    0.4037649396    0.9735374458   -0.0264625542         -1.0707
O99        O    0.4735374458    1.0264625542    0.0962350604         -1.0689
O100       O    0.5264625542    0.9037649396    0.0264625542          -1.064
O101       O    0.4037649396    1.0264625542    0.0264625542         -1.0708
O102       O    0.4735374458    0.9037649396   -0.0264625542         -1.0668
O103       O    0.5264625542    0.9735374458    0.0962350604         -1.0726
O104       O    0.5962350604    1.0264625542   -0.0264625542         -1.0665
O105       O    0.4735374458    1.0962350604    0.0264625542         -1.0741
O106       O    0.5962350604    0.9735374458    0.0264625542          -1.068
O107       O    0.5264625542    1.0962350604   -0.0264625542         -1.0727
O108       O    0.5264625542    1.0264625542   -0.0962350604         -1.0718
O109       O    0.4735374458    0.9735374458   -0.0962350604         -1.0697
C110       C    0.3849392730    1.0000000000    0.0000000000          0.4482
C111       C    0.5000000000    1.0000000000    0.1150607270          0.4531
C112       C    0.5000000000    0.8849392730    0.0000000000          0.4427
C113       C    0.6150607270    1.0000000000    0.0000000000          0.4465
C114       C    0.5000000000    1.1150607270    0.0000000000          0.4579
C115       C    0.5000000000    1.0000000000   -0.1150607270          0.4484
Zn116     Zn    0.5360070579    1.0360070579    0.5360070579          1.4972
Zn117     Zn    0.5360070579    0.9639929421    0.4639929421          1.4936
Zn118     Zn    0.4639929421    0.9639929421    0.5360070579          1.4911
Zn119     Zn    0.4639929421    1.0360070579    0.4639929421          1.4948
O120       O    0.5000000000    1.0000000000    0.5000000000         -2.1643
O121       O    0.5962350604    1.0264625542    0.5264625542         -1.0707
O122       O    0.5264625542    0.9037649396    0.4735374458         -1.0689
O123       O    0.4735374458    0.9735374458    0.5962350604          -1.064
O124       O    0.5962350604    0.9735374458    0.4735374458         -1.0708
O125       O    0.5264625542    1.0264625542    0.5962350604         -1.0668
O126       O    0.4735374458    0.9037649396    0.5264625542         -1.0726
O127       O    0.4037649396    1.0264625542    0.4735374458         -1.0665
O128       O    0.5264625542    0.9735374458    0.4037649396         -1.0741
O129       O    0.4037649396    0.9735374458    0.5264625542          -1.068
O130       O    0.4735374458    1.0264625542    0.4037649396         -1.0727
O131       O    0.4735374458    1.0962350604    0.4735374458         -1.0718
O132       O    0.5264625542    1.0962350604    0.5264625542         -1.0697
C133       C    0.6150607270    1.0000000000    0.5000000000          0.4482
C134       C    0.5000000000    0.8849392730    0.5000000000          0.4531
C135       C    0.5000000000    1.0000000000    0.6150607270          0.4427
C136       C    0.3849392730    1.0000000000    0.5000000000          0.4465
C137       C    0.5000000000    1.0000000000    0.3849392730          0.4579
C138       C    0.5000000000    1.1150607270    0.5000000000          0.4484
Zn139     Zn    0.4639929421    0.5360070579   -0.0360070579          1.4972
Zn140     Zn    0.4639929421    0.4639929421    0.0360070579          1.4936
Zn141     Zn    0.5360070579    0.4639929421   -0.0360070579          1.4911
Zn142     Zn    0.5360070579    0.5360070579    0.0360070579          1.4948
O143       O    0.5000000000    0.5000000000    0.0000000000         -2.1643
O144       O    0.4037649396    0.5264625542   -0.0264625542         -1.0707
O145       O    0.4735374458    0.4037649396    0.0264625542         -1.0689
O146       O    0.5264625542    0.4735374458   -0.0962350604          -1.064
O147       O    0.4037649396    0.4735374458    0.0264625542         -1.0708
O148       O    0.4735374458    0.5264625542   -0.0962350604         -1.0668
O149       O    0.5264625542    0.4037649396   -0.0264625542         -1.0726
O150       O    0.5962350604    0.5264625542    0.0264625542         -1.0665
O151       O    0.4735374458    0.4735374458    0.0962350604         -1.0741
O152       O    0.5962350604    0.4735374458   -0.0264625542          -1.068
O153       O    0.5264625542    0.5264625542    0.0962350604         -1.0727
O154       O    0.5264625542    0.5962350604    0.0264625542         -1.0718
O155       O    0.4735374458    0.5962350604   -0.0264625542         -1.0697
C156       C    0.3849392730    0.5000000000    0.0000000000          0.4482
C157       C    0.5000000000    0.3849392730    0.0000000000          0.4531
C158       C    0.5000000000    0.5000000000   -0.1150607270          0.4427
C159       C    0.6150607270    0.5000000000    0.0000000000          0.4465
C160       C    0.5000000000    0.5000000000    0.1150607270          0.4579
C161       C    0.5000000000    0.6150607270    0.0000000000          0.4484
Zn162     Zn    0.4639929421    0.5360070579    0.4639929421          1.4972
Zn163     Zn    0.4639929421    0.4639929421    0.5360070579          1.4936
Zn164     Zn    0.5360070579    0.4639929421    0.4639929421          1.4911
Zn165     Zn    0.5360070579    0.5360070579    0.5360070579          1.4948
O166       O    0.5000000000    0.5000000000    0.5000000000         -2.1643
O167       O    0.4037649396    0.5264625542    0.4735374458         -1.0707
O168       O    0.4735374458    0.4037649396    0.5264625542         -1.0689
O169       O    0.5264625542    0.4735374458    0.4037649396          -1.064
O170       O    0.4037649396    0.4735374458    0.5264625542         -1.0708
O171       O    0.4735374458    0.5264625542    0.4037649396         -1.0668
O172       O    0.5264625542    0.4037649396    0.4735374458         -1.0726
O173       O    0.5962350604    0.5264625542    0.5264625542         -1.0665
O174       O    0.4735374458    0.4735374458    0.5962350604         -1.0741
O175       O    0.5962350604    0.4735374458    0.4735374458          -1.068
O176       O    0.5264625542    0.5264625542    0.5962350604         -1.0727
O177       O    0.5264625542    0.5962350604    0.5264625542         -1.0718
O178       O    0.4735374458    0.5962350604    0.4735374458         -1.0697
C179       C    0.3849392730    0.5000000000    0.5000000000          0.4482
C180       C    0.5000000000    0.3849392730    0.5000000000          0.4531
C181       C    0.5000000000    0.5000000000    0.3849392730          0.4427
C182       C    0.6150607270    0.5000000000    0.5000000000          0.4465
C183       C    0.5000000000    0.5000000000    0.6150607270          0.4579
C184       C    0.5000000000    0.6150607270    0.5000000000          0.4484
C530       C    0.5000000000    0.5000000000   -0.1645174423         -0.3246
C531       C    0.4971648442    0.5356578725   -0.1902282319          0.6728
C532       C    0.4972545053    0.5315030546   -0.2335095924          0.6724
C533       C    0.5004076902    0.4934043352   -0.2530869992         -0.3251
C534       C    0.5033938215    0.4590224107   -0.2275326763         -0.3223
C535       C    0.5030626161    0.4617708079   -0.1845316932         -0.3222
N536       N    0.5007028771    0.4901591132   -0.2950734157         -0.3252
F537       F    0.4939726682    0.5664241287   -0.2589203929          0.6694
C538       C    0.4939617006    0.5819839731   -0.1731782064          0.6703
F539       F    0.5062608175    0.4249948650   -0.1621895868         -0.3193
H540       H    0.5061564037    0.4273430103   -0.2421623059         -0.3201
N541       N    0.5000000000    0.5000000000   -0.3354825577          0.6739
H542       H    0.4941031411    0.6068102287   -0.1978578058          0.6704
H543       H    0.5212566714    0.5897382827   -0.1526106338         -0.3038
H544       H    0.4642681951    0.5864524059   -0.1550363900          0.6426
C515       C    0.5000000000    0.5000000000    0.1645174423         -0.3246
C516       C    0.5029436311    0.5356490816    0.1902282319          0.6728
C517       C    0.5028413294    0.5314945557    0.2335095924          0.6724
C518       C    0.4995722445    0.4934056061    0.2530869992         -0.3251
C519       C    0.4964815207    0.4590329260    0.2275326763         -0.3223
C520       C    0.4968210865    0.4617803028    0.1845316932         -0.3222
N521       N    0.4992671854    0.4901612972    0.2950734157         -0.3252
F522       F    0.5062293980    0.5664054832    0.2589203929          0.6694
C523       C    0.5062877060    0.5819652222    0.1731782064          0.6703
F524       F    0.4935110099    0.4250142606    0.1621895868         -0.3193
H525       H    0.4936225674    0.4273620773    0.2421623059         -0.3201
N526       N    0.5000000000    0.5000000000    0.3354825577          0.6739
H527       H    0.5062217996    0.6067917933    0.1978578058          0.6704
H528       H    0.4790164539    0.5898025403    0.1526106338         -0.3038
H529       H    0.5359946692    0.5863432924    0.1550363900          0.6426
C500       C    0.5000000000    0.8354825577    0.5000000000         -0.3246
C501       C    0.4990358147    0.8097717681    0.4642425906          0.6728
C502       C    0.4989078025    0.7664904076    0.4683964037          0.6724
C503       C    0.5000617755    0.7469130008    0.5066079641         -0.3251
C504       C    0.5012435390    0.7724673237    0.5410990810         -0.3223
C505       C    0.5010566967    0.8154683068    0.5383371118         -0.3222
N506       N    0.5001866344    0.7049265843    0.5098641907         -0.3252
F507       F    0.4974589692    0.7410796071    0.4333513934          0.6694
C508       C    0.4982627455    0.8268217936    0.4178123194          0.6703
F509       F    0.5023248862    0.8378104132    0.5752300672         -0.3193
H510       H    0.5023435669    0.7578376941    0.5728796758         -0.3201
N511       N    0.5000000000    0.6645174423    0.5000000000          0.6739
H512       H    0.4997039192    0.8021421942    0.3930275258          0.6704
H513       H    0.5259262970    0.8473893662    0.4114978385         -0.3038
H514       H    0.4688439444    0.8449636100    0.4117952351          0.6426
C485       C    0.5000000000    1.1645174423    0.5000000000         -0.3246
C486       C    0.4679065755    1.1902282319    0.5157966479          0.6728
C487       C    0.4715229953    1.2335095924    0.5137491961          0.6724
C488       C    0.5058766575    1.2530869992    0.4969777653         -0.3251
C489       C    0.5369507551    1.2275326763    0.4819633002         -0.3223
C490       C    0.5344194770    1.1845316932    0.4830840208         -0.3222
N491       N    0.5088164801    1.2950734157    0.4955720469         -0.3252
F492       F    0.4398343577    1.2589203929    0.5287852234          0.6694
C493       C    0.4264569101    1.1731782064    0.5367320953          0.6703
F494       F    0.5676593883    1.1621895868    0.4670276587         -0.3193
H495       H    0.5655880456    1.2421623059    0.4681386169         -0.3201
N496       N    0.5000000000    1.3354825577    0.5000000000          0.6739
H497       H    0.4051940134    1.1978578058    0.5495481866          0.6704
H498       H    0.4337498825    1.1526106338    0.5641539351         -0.3038
H499       H    0.4074334858    1.1550363900    0.5134989188          0.6426
C470       C    0.5000000000    0.6645174423    0.0000000000         -0.3246
C471       C    0.4809197671    0.6902282319    0.0302566801          0.6728
C472       C    0.4829298525    0.7335095924    0.0266193587          0.6724
C473       C    0.5034259236    0.7530869992   -0.0056508453         -0.3251
C474       C    0.5220469241    0.7275326763   -0.0347075494         -0.3223
C475       C    0.5204765038    0.6845316932   -0.0324278205         -0.3222
N476       N    0.5051953188    0.7950734157   -0.0083872375         -0.3252
F477       F    0.4637964758    0.7589203929    0.0560160552          0.6694
C478       C    0.4565562963    0.6731782064    0.0697888064          0.6703
F479       F    0.5403977578    0.6621895868   -0.0635058208         -0.3193
H480       H    0.5392141478    0.7421623059   -0.0614751175         -0.3201
N481       N    0.5000000000    0.8354825577    0.0000000000          0.6739
H482       H    0.4451450829    0.6978578058    0.0918375521          0.6704
H483       H    0.4771219687    0.6526106338    0.0893386878         -0.3038
H484       H    0.4281870242    0.6550363900    0.0599472840          0.6426
C455       C    0.5000000000    1.1645174423    0.0000000000         -0.3246
C456       C    0.5056312051    1.1902282319    0.0353243756          0.6728
C457       C    0.5047411269    1.2335095924    0.0312650269          0.6724
C458       C    0.4988449355    1.2530869992   -0.0065065222         -0.3251
C459       C    0.4936605768    1.2275326763   -0.0406262546         -0.3223
C460       C    0.4939850931    1.1845316932   -0.0378770596         -0.3222
N461       N    0.4983685567    1.2950734157   -0.0097301327         -0.3252
F462       F    0.5097648848    1.2589203929    0.0659783345          0.6694
C463       C    0.5134139408    1.1731782064    0.0811042483          0.6703
F464       F    0.4884437758    1.1621895868   -0.0743735288         -0.3193
H465       H    0.4888945810    1.2421623059   -0.0720666991         -0.3201
N466       N    0.5000000000    1.3354825577    0.0000000000          0.6739
H467       H    0.5193906133    1.1978578058    0.1052007700          0.6704
H468       H    0.5417670223    1.1526106338    0.0822211731         -0.3038
H469       H    0.4856044332    1.1550363900    0.0924313151          0.6426
C440       C    0.5000000000    1.0000000000   -0.3354825577         -0.3246
C441       C    0.4971648442    0.9643421275   -0.3097717681          0.6728
C442       C    0.4972545053    0.9684969454   -0.2664904076          0.6724
C443       C    0.5004076902    1.0065956648   -0.2469130008         -0.3251
C444       C    0.5033938215    1.0409775893   -0.2724673237         -0.3223
C445       C    0.5030626161    1.0382291921   -0.3154683068         -0.3222
N446       N    0.5007028771    1.0098408868   -0.2049265843         -0.3252
F447       F    0.4939726682    0.9335758713   -0.2410796071          0.6694
C448       C    0.4939617006    0.9180160269   -0.3268217936          0.6703
F449       F    0.5062608175    1.0750051350   -0.3378104132         -0.3193
H450       H    0.5061564037    1.0726569897   -0.2578376941         -0.3201
N451       N    0.5000000000    1.0000000000   -0.1645174423          0.6739
H452       H    0.4941031411    0.8931897713   -0.3021421942          0.6704
H453       H    0.5212566714    0.9102617173   -0.3473893662         -0.3038
H454       H    0.4642681951    0.9135475941   -0.3449636100          0.6426
C425       C    0.5000000000    1.0000000000    0.1645174423         -0.3246
C426       C    0.5356779420    0.9974297023    0.1902282319          0.6728
C427       C    0.5315225729    0.9974885091    0.2335095924          0.6724
C428       C    0.4934014897    1.0003587024    0.2530869992         -0.3251
C429       C    0.4589983394    1.0030894461    0.2275326763         -0.3223
C430       C    0.4617491202    1.0027786582    0.1845316932         -0.3222
N431       N    0.4901541652    1.0006297836    0.2950734157         -0.3252
F432       F    0.5664670537    0.9944660712    0.2589203929          0.6694
C433       C    0.5820265506    0.9945706447    0.1731782064          0.6703
F434       F    0.4249504428    1.0057036892    0.1621895868         -0.3193
H435       H    0.4272992987    1.0056167146    0.2421623059         -0.3201
N436       N    0.5000000000    1.0000000000    0.3354825577          0.6739
H437       H    0.6068510715    0.9948964303    0.1978578058          0.6704
H438       H    0.5895779657    1.0219224431    0.1526106338         -0.3038
H439       H    0.5867153513    0.9649111385    0.1550363900          0.6426
C410       C    0.8354825577    0.5000000000    0.5000000000         -0.3246
C411       C    0.8097717681    0.4668663243    0.5134789284          0.6728
C412       C    0.7664904076    0.4706189444    0.5116933213          0.6724
C413       C    0.7469130008    0.5060763442    0.4974024922         -0.3251
C414       C    0.7724673237    0.5381377473    0.4846314256         -0.3223
C415       C    0.8154683068    0.5355333082    0.4855696584         -0.3222
N416       N    0.7049265843    0.5091085256    0.4962089775         -0.3252
F417       F    0.7410796071    0.4379430209    0.5244422778          0.6694
C418       C    0.8268217936    0.4240352700    0.5314196226          0.6703
F419       F    0.8378104132    0.5698290129    0.4719130444         -0.3193
H420       H    0.7578376941    0.5676840422    0.4728741841         -0.3201
N421       N    0.6645174423    0.5000000000    0.5000000000          0.6739
H422       H    0.8021421942    0.4019163568    0.5426942249          0.6704
H423       H    0.8473893662    0.4293635422    0.5592899341         -0.3038
H424       H    0.8449636100    0.4067088334    0.5068948238          0.6426
C395       C    1.1645174423    0.5000000000    0.5000000000         -0.3246
C396       C    1.1902282319    0.5309337808    0.4820382856          0.6728
C397       C    1.2335095924    0.5272254279    0.4839140972          0.6724
C398       C    1.2530869992    0.4942277246    0.5032171170         -0.3251
C399       C    1.2275326763    0.4645099015    0.5207637606         -0.3223
C400       C    1.1845316932    0.4668455006    0.5192777052         -0.3222
N401       N    1.2950734157    0.4914284955    0.5048853250         -0.3252
F402       F    1.2589203929    0.5573017418    0.4658678452          0.6694
C403       C    1.1731782064    0.5713298946    0.4591358466          0.6703
F404       F    1.1621895868    0.4350602120    0.5380498627         -0.3193
H405       H    1.2421623059    0.4371328154    0.5369412582         -0.3201
N406       N    1.3354825577    0.5000000000    0.5000000000          0.6739
H407       H    1.1978578058    0.5937809493    0.4485380582          0.6704
H408       H    1.1526106338    0.5901151150    0.4804022577         -0.3038
H409       H    1.1550363900    0.5625317409    0.4304258544          0.6426
C380       C    0.6645174423    0.5000000000    0.0000000000         -0.3246
C381       C    0.6902282319    0.5275342004   -0.0228339612          0.6728
C382       C    0.7335095924    0.5241874693   -0.0203702362          0.6724
C383       C    0.7530869992    0.4948398186    0.0041281392         -0.3251
C384       C    0.7275326763    0.4684361044    0.0263514960         -0.3223
C385       C    0.6845316932    0.4704935260    0.0244993620         -0.3222
N386       N    0.7950734157    0.4923553106    0.0062366509         -0.3252
F387       F    0.7589203929    0.5508620373   -0.0431456459          0.6694
C388       C    0.6731782064    0.5635824624   -0.0521066539          0.6703
F389       F    0.6621895868    0.4422537023    0.0482735249         -0.3193
H390       H    0.7421623059    0.4441142290    0.0468371654         -0.3201
N391       N    0.8354825577    0.5000000000    0.0000000000          0.6739
H392       H    0.6978578058    0.5839697715   -0.0662742437          0.6704
H393       H    0.6526106338    0.5856284825   -0.0342427868         -0.3038
H394       H    0.6550363900    0.5501537413   -0.0789644388          0.6426
C365       C    1.1645174423    0.5000000000    0.0000000000         -0.3246
C366       C    1.1902282319    0.4949865465    0.0354173300          0.6728
C367       C    1.2335095924    0.4958055978    0.0313430564          0.6724
C368       C    1.2530869992    0.5010412607   -0.0065257016         -0.3251
C369       C    1.2275326763    0.5056289734   -0.0407307685         -0.3223
C370       C    1.1845316932    0.5053525176   -0.0379763256         -0.3222
N371       N    1.2950734157    0.5014612708   -0.0097571398         -0.3252
F372       F    1.2589203929    0.4913888274    0.0661388033          0.6694
C373       C    1.1731782064    0.4880044816    0.0813261362          0.6703
F374       F    1.1621895868    0.5102556280   -0.0745640007         -0.3193
H375       H    1.2421623059    0.5098451772   -0.0722496501         -0.3201
N376       N    1.3354825577    0.5000000000    0.0000000000          0.6739
H377       H    1.1978578058    0.4824495340    0.1055233578          0.6704
H378       H    1.1526106338    0.4596752297    0.0829380393         -0.3038
H379       H    1.1550363900    0.5160075604    0.0921658200          0.6426
C350       C    1.0000000000    0.5000000000   -0.3354825577         -0.3246
C351       C    0.9959520797    0.4644593709   -0.3097717681          0.6728
C352       C    0.9961831905    0.4686087248   -0.2664904076          0.6724
C353       C    1.0006320840    0.5065779537   -0.2469130008         -0.3251
C354       C    1.0047874369    0.5408382333   -0.2724673237         -0.3223
C355       C    1.0043628208    0.5381027104   -0.3154683068         -0.3222
N356       N    1.0010376230    0.5098112399   -0.2049265843         -0.3252
F357       F    0.9917139413    0.4338196794   -0.2410796071          0.6694
C358       C    0.9911730546    0.4182692351   -0.3268217936          0.6703
F359       F    1.0088116544    0.5747483970   -0.3378104132         -0.3193
H360       H    1.0086273298    0.5724051699   -0.2578376941         -0.3201
N361       N    1.0000000000    0.5000000000   -0.1645174423          0.6739
H362       H    0.9904688989    0.3934525645   -0.3021421942          0.6704
H363       H    1.0181881006    0.4095898321   -0.3473893662         -0.3038
H364       H    0.9613445922    0.4148146738   -0.3449636100          0.6426
C335       C    1.0000000000    0.5000000000    0.1645174423         -0.3246
C336       C    1.0040479203    0.5355406291    0.1902282319          0.6728
C337       C    1.0038168095    0.5313912752    0.2335095924          0.6724
C338       C    0.9993679160    0.4934220463    0.2530869992         -0.3251
C339       C    0.9952125631    0.4591617667    0.2275326763         -0.3223
C340       C    0.9956371792    0.4618972896    0.1845316932         -0.3222
N341       N    0.9989623770    0.4901887601    0.2950734157         -0.3252
F342       F    1.0082860587    0.5661803206    0.2589203929          0.6694
C343       C    1.0088269454    0.5817307649    0.1731782064          0.6703
F344       F    0.9911883456    0.4252516030    0.1621895868         -0.3193
H345       H    0.9913726702    0.4275948301    0.2421623059         -0.3201
N346       N    1.0000000000    0.5000000000    0.3354825577          0.6739
H347       H    1.0095311011    0.6065474355    0.1978578058          0.6704
H348       H    0.9818118994    0.5904101679    0.1526106338         -0.3038
H349       H    1.0386554078    0.5851853262    0.1550363900          0.6426
C320       C    1.0000000000   -0.3354825577    0.5000000000         -0.3246
C321       C    1.0006786637   -0.3097717681    0.4642360322          0.6728
C322       C    1.0008398363   -0.2664904076    0.4683886908          0.6724
C323       C    0.9999909852   -0.2469130008    0.5066082467         -0.3251
C324       C    0.9990846399   -0.2724673237    0.5411076996         -0.3223
C325       C    0.9992494244   -0.3154683068    0.5383443266         -0.3222
N326       N    0.9998921283   -0.2049265843    0.5098653664         -0.3252
F327       F    1.0020088205   -0.2410796071    0.4333332299          0.6694
C328       C    1.0010810043   -0.3268217936    0.4178010686          0.6703
F329       F    0.9982758324   -0.3378104132    0.5752462315         -0.3193
H330       H    0.9982383867   -0.2578376941    0.5728960642         -0.3201
N331       N    1.0000000000   -0.1645174423    0.5000000000          0.6739
H332       H    0.9994419922   -0.3021421942    0.3930285714          0.6704
H333       H    0.9733679191   -0.3473893662    0.4117076576         -0.3038
H334       H    1.0304508266   -0.3449636100    0.4115492933          0.6426
C305       C    1.0000000000    0.1645174423    0.5000000000         -0.3246
C306       C    0.9976803334    0.1902282319    0.5356951135          0.6728
C307       C    0.9977099554    0.2335095924    0.5315394338          0.6724
C308       C    1.0003123520    0.2530869992    0.4933991333         -0.3251
C309       C    1.0028014135    0.2275326763    0.4589776533         -0.3223
C310       C    1.0025099521    0.1845316932    0.4617305489         -0.3222
N311       N    1.0005606203    0.2950734157    0.4901499850         -0.3252
F312       F    0.9949330087    0.2589203929    0.5665042796          0.6694
C313       C    0.9951468546    0.1731782064    0.5820626582          0.6703
F314       F    1.0051764723    0.1621895868    0.4249122364         -0.3193
H315       H    1.0051059959    0.2421623059    0.4272616452         -0.3201
N316       N    1.0000000000    0.3354825577    0.5000000000          0.6739
H317       H    0.9956469758    0.1978578058    0.6068842789          0.6704
H318       H    1.0225510123    0.1526106338    0.5894217943         -0.3038
H319       H    0.9655210095    0.1550363900    0.5869596433          0.6426
C290       C    0.6645174423    0.0000000000    0.5000000000         -0.3246
C291       C    0.6902282319   -0.0217532751    0.5283957215          0.6728
C292       C    0.7335095924   -0.0190397426    0.5252481365          0.6724
C293       C    0.7530869992    0.0041104671    0.4948257305         -0.3251
C294       C    0.7275326763    0.0248977568    0.4672771861         -0.3223
C295       C    0.6845316932    0.0233048192    0.4695412386         -0.3222
N296       N    0.7950734157    0.0060626177    0.4922165716         -0.3252
F297       F    0.7589203929   -0.0399680506    0.5533952108          0.6694
C298       C    0.6731782064   -0.0503716445    0.5649656088          0.6703
F299       F    0.6621895868    0.0455364504    0.4400717112         -0.3193
H300       H    0.7421623059    0.0440428014    0.4418865670         -0.3201
N301       N    0.8354825577    0.0000000000    0.5000000000          0.6739
H302       H    0.6978578058   -0.0670890424    0.5833202154          0.6704
H303       H    0.6526106338   -0.0758442162    0.5524638955         -0.3038
H304       H    0.6550363900   -0.0312953880    0.5881554255          0.6426
C275       C    1.1645174423    0.0000000000    0.5000000000         -0.3246
C276       C    1.1902282319    0.0354163618    0.4949797113          0.6728
C277       C    1.2335095924    0.0312748988    0.4953244364          0.6724
C278       C    1.2530869992   -0.0065581632    0.5008120964         -0.3251
C279       C    1.2275326763   -0.0406917123    0.5059046931         -0.3223
C280       C    1.1845316932   -0.0379688520    0.5054052773         -0.3222
N281       N    1.2950734157   -0.0097791227    0.5013060820         -0.3252
F282       F    1.2589203929    0.0659284138    0.4899035721          0.6694
C283       C    1.1731782064    0.0814581973    0.4889367733          0.6703
F284       F    1.1621895868   -0.0744788704    0.5108566097         -0.3193
H285       H    1.2421623059   -0.0721415741    0.5106081450         -0.3201
N286       N    1.3354825577    0.0000000000    0.5000000000          0.6739
H287       H    1.1978578058    0.1062462537    0.4875528528          0.6704
H288       H    1.1526106338    0.0908746105    0.5157038410         -0.3038
H289       H    1.1550363900    0.0840940985    0.4590248495          0.6426
C260       C   -0.0000000000   -0.1645174423    0.0000000000         -0.3246
C261       C   -0.0251812263   -0.1902282319   -0.0254052715          0.6728
C262       C   -0.0224309723   -0.2335095924   -0.0222897212          0.6724
C263       C    0.0045686331   -0.2530869992    0.0047745782         -0.3251
C264       C    0.0290415992   -0.2275326763    0.0291078402         -0.3223
C265       C    0.0270146446   -0.1845316932    0.0272224122         -0.3222
N266       N    0.0068887580   -0.2950734157    0.0070627264         -0.3252
F267       F   -0.0474777965   -0.2589203929   -0.0468439157          0.6694
C268       C   -0.0575294403   -0.1731782064   -0.0587213453          0.6703
F269       F    0.0531948331   -0.1621895868    0.0532473271         -0.3193
H270       H    0.0515994472   -0.2421623059    0.0515212239         -0.3201
N271       N    0.0000000000   -0.3354825577    0.0000000000          0.6739
H272       H   -0.0734457794   -0.1978578058   -0.0777747735          0.6704
H273       H   -0.0416868192   -0.1526106338   -0.0822618658         -0.3038
H274       H   -0.0830933457   -0.1550363900   -0.0429683169          0.6426
C245       C    0.0000000000    0.3354825577    0.0000000000         -0.3246
C246       C    0.0141278352    0.3097717681   -0.0328622314          0.6728
C247       C    0.0122687849    0.2664904076   -0.0291454475          0.6724
C248       C   -0.0027164857    0.2469130008    0.0060240942         -0.3251
C249       C   -0.0161155117    0.2724673237    0.0378281790 -0.32389999999999997
C250       C   -0.0151262487    0.3154683068    0.0352426921         -0.3222
N251       N   -0.0039693919    0.2049265843    0.0090322211         -0.3252
F252       F    0.0256577884    0.2410796071   -0.0615643687          0.6694
C253       C    0.0329072546    0.3268217936   -0.0753322341          0.6703
F254       F   -0.0294545843    0.3378104132    0.0692632339         -0.3193
H255       H   -0.0284514536    0.2578376941    0.0671375770         -0.3201
N256       N    0.0000000000    0.1645174423    0.0000000000          0.6739
H257       H    0.0446146048    0.3021421942   -0.0972251765          0.6704
H258       H    0.0606674070    0.3473893662   -0.0694569736         -0.3038
H259       H    0.0087278899    0.3449636100   -0.0931375558          0.6426
C230       C   -0.3354825577    0.0000000000    0.0000000000         -0.3246
C231       C   -0.3097717681    0.0191659542   -0.0302024532          0.6728
C232       C   -0.2664904076    0.0167403950   -0.0268279586          0.6724
C233       C   -0.2469130008   -0.0036384350    0.0055164115         -0.3251
C234       C   -0.2724673237   -0.0219168292    0.0347898468         -0.3223
C235       C   -0.3154683068   -0.0205296337    0.0323942107         -0.3222
N236       N   -0.2049265843   -0.0053530295    0.0082874704         -0.3252
F237       F   -0.2410796071    0.0351065072   -0.0567100234          0.6694
C238       C   -0.3268217936    0.0444498540   -0.0691523201          0.6703
F239       F   -0.3378104132   -0.0400774422    0.0637084511         -0.3193
H240       H   -0.2578376941   -0.0387495588    0.0617690145         -0.3201
N241       N   -0.1645174423    0.0000000000    0.0000000000          0.6739
H242       H   -0.3021421942    0.0594845057   -0.0889088943          0.6704
H243       H   -0.3473893662    0.0709251427   -0.0589442923         -0.3038
H244       H   -0.3449636100    0.0234039890   -0.0905706004          0.6426
C215       C    0.3354825577   -0.0000000000    0.0000000000         -0.3246
C216       C    0.3097717681    0.0085982144    0.0347216458          0.6728
C217       C    0.2664904076    0.0073680486    0.0307521065          0.6724
C218       C    0.2469130008   -0.0017011464   -0.0063855388         -0.3251
C219       C    0.2724673237   -0.0097522453   -0.0399446437         -0.3223
C220       C    0.3154683068   -0.0091964077   -0.0372327387         -0.3222
N221       N    0.2049265843   -0.0024484212   -0.0095573178         -0.3252
F222       F    0.2410796071    0.0153093171    0.0649162415          0.6694
C223       C    0.3268217936    0.0202244142    0.0796793949          0.6703
F224       F    0.3378104132   -0.0178041735   -0.0731298811         -0.3193
H225       H    0.2578376941   -0.0171599077   -0.0708694365         -0.3201
N226       N    0.1645174423   -0.0000000000    0.0000000000          0.6739
H227       H    0.3021421942    0.0282173833    0.1031841906          0.6704
H228       H    0.3473893662    0.0485703876    0.0783946612         -0.3038
H229       H    0.3449636100   -0.0065276154    0.0933175792          0.6426
C200       C   -0.0000000000    0.0000000000   -0.3354825577         -0.3246
C201       C   -0.0334795661    0.0125952624   -0.3097717681          0.6728
C202       C   -0.0295119343    0.0113589580   -0.2664904076          0.6724
C203       C    0.0062250554   -0.0022175866   -0.2469130008         -0.3251
C204       C    0.0384367428   -0.0146047133   -0.2724673237         -0.3223
C205       C    0.0358874352   -0.0135256329   -0.3154683068         -0.3222
N206       N    0.0092617433   -0.0033995883   -0.2049265843         -0.3252
F207       F   -0.0621598438    0.0241794835   -0.2410796071          0.6694
C208       C   -0.0771085900    0.0284973375   -0.3268217936          0.6703
F209       F    0.0703408794   -0.0267792605   -0.3378104132         -0.3193
H210       H    0.0681134012   -0.0260289076   -0.2578376941         -0.3201
N211       N    0.0000000000    0.0000000000   -0.1645174423          0.6739
H212       H   -0.1010038161    0.0352338905   -0.3021421942          0.6704
H213       H   -0.0921157316    0.0044155923   -0.3473893662         -0.3038
H214       H   -0.0731825708    0.0582674153   -0.3449636100          0.6426
C185       C   -0.0000000000    0.0000000000    0.1645174423         -0.3246
C186       C    0.0167572295   -0.0316024879    0.1902282319          0.6728
C187       C    0.0146016570   -0.0280494529    0.2335095924          0.6724
C188       C   -0.0031980687    0.0057828507    0.2530869992         -0.3251
C189       C   -0.0191427337    0.0363900617    0.2275326763         -0.3223
C190       C   -0.0179461930    0.0338937296    0.1845316932         -0.3222
N191       N   -0.0046917971    0.0086789475    0.2950734157         -0.3252
F192       F    0.0305864055   -0.0592702741    0.2589203929          0.6694
C193       C    0.0389330555   -0.0724020034    0.1731782064          0.6703
F194       F   -0.0349975904    0.0666343513    0.1621895868         -0.3193
H195       H   -0.0338246769    0.0645974511    0.2421623059         -0.3201
N196       N   -0.0000000000    0.0000000000    0.3354825577          0.6739
H197       H    0.0523844934   -0.0932687662    0.1978578058          0.6704
H198       H    0.0661225083   -0.0642854521    0.1526106338         -0.3038
H199       H    0.0162840886   -0.0921173644    0.1550363900          0.6426
loop_
_geom_bond_atom_site_label_1
_geom_bond_atom_site_label_2
_geom_bond_distance
_geom_bond_site_symmetry_2
_ccdc_geom_bond_type
Zn1          O5 1.942       .   S
Zn1          O6 1.922       .   S
Zn1         O10 1.922       .   S
Zn1         O17 1.922       .   S
Zn2          O5 1.942       .   S
Zn2          O7 1.922       .   S
Zn2          O9 1.922       .   S
Zn2         O13 1.922       .   S
Zn3          O5 1.942       .   S
Zn3          O8 1.922       .   S
Zn3         O11 1.922       .   S
Zn3         O14 1.922       .   S
Zn4          O5 1.942       .   S
Zn4         O12 1.922       .   S
Zn4         O15 1.922       .   S
Zn4         O16 1.922       .   S
O6          C18 1.304       .   A
O7          C19 1.304       .   A
O8          C20 1.304       .   A
O9          C18 1.304       .   A
O10         C20 1.304       .   A
O11         C19 1.304       .   A
O12         C21 1.304       .   A
O13         C22 1.304       .   A
O14         C21 1.304       .   A
O15         C22 1.304       .   A
O16         C23 1.304       .   A
O17         C23 1.304       .   A
C18        C185 1.540       .   S
C19        N226 1.540       .   S
C20        C260 1.540       .   S
C21        N211 1.540       .   S
C22        N256 1.540       .   S
C23        N241 1.540       .   S
Zn24        O28 1.942       .   S
Zn24        O29 1.922       .   S
Zn24        O33 1.922       .   S
Zn24        O40 1.922       .   S
Zn25        O28 1.942       .   S
Zn25        O30 1.922       .   S
Zn25        O32 1.922       .   S
Zn25        O36 1.922       .   S
Zn26        O28 1.942       .   S
Zn26        O31 1.922       .   S
Zn26        O34 1.922       .   S
Zn26        O37 1.922       .   S
Zn27        O28 1.942       .   S
Zn27        O35 1.922       .   S
Zn27        O38 1.922       .   S
Zn27        O39 1.922       .   S
O29         C41 1.304       .   A
O30         C42 1.304       .   A
O31         C43 1.304       .   A
O32         C41 1.304       .   A
O33         C43 1.304       .   A
O34         C42 1.304       .   A
O35         C44 1.304       .   A
O36         C45 1.304       .   A
O37         C44 1.304       .   A
O38         C45 1.304       .   A
O39         C46 1.304       .   A
O40         C46 1.304       .   A
C41        N196 1.540   1_655   S
C42        C275 1.540       .   S
C43        C305 1.540       .   S
C44        C200 1.540   1_656   S
C45        N331 1.540       .   S
C46        N301 1.540       .   S
Zn47        O51 1.942       .   S
Zn47        O52 1.922       .   S
Zn47        O56 1.922       .   S
Zn47        O63 1.922       .   S
Zn48        O51 1.942       .   S
Zn48        O53 1.922       .   S
Zn48        O55 1.922       .   S
Zn48        O59 1.922       .   S
Zn49        O51 1.942       .   S
Zn49        O54 1.922       .   S
Zn49        O57 1.922       .   S
Zn49        O60 1.922       .   S
Zn50        O51 1.942       .   S
Zn50        O58 1.922       .   S
Zn50        O61 1.922       .   S
Zn50        O62 1.922       .   S
O52         C64 1.304       .   A
O53         C65 1.304       .   A
O54         C66 1.304       .   A
O55         C64 1.304       .   A
O56         C66 1.304       .   A
O57         C65 1.304       .   A
O58         C67 1.304       .   A
O59         C68 1.304       .   A
O60         C67 1.304       .   A
O61         C68 1.304       .   A
O62         C69 1.304       .   A
O63         C69 1.304       .   A
C64        C245 1.540   1_655   S
C65        C335 1.540       .   S
C66        C365 1.540       .   S
C67        N271 1.540   1_665   S
C68        N391 1.540       .   S
C69        N361 1.540       .   S
Zn70        O74 1.942       .   S
Zn70        O75 1.922       .   S
Zn70        O79 1.922       .   S
Zn70        O86 1.922       .   S
Zn71        O74 1.942       .   S
Zn71        O76 1.922       .   S
Zn71        O78 1.922       .   S
Zn71        O82 1.922       .   S
Zn72        O74 1.942       .   S
Zn72        O77 1.922       .   S
Zn72        O80 1.922       .   S
Zn72        O83 1.922       .   S
Zn73        O74 1.942       .   S
Zn73        O81 1.922       .   S
Zn73        O84 1.922       .   S
Zn73        O85 1.922       .   S
O75         C87 1.304       .   A
O76         C88 1.304       .   A
O77         C89 1.304       .   A
O78         C87 1.304       .   A
O79         C89 1.304       .   A
O80         C88 1.304       .   A
O81         C90 1.304       .   A
O82         C91 1.304       .   A
O83         C90 1.304       .   A
O84         C91 1.304       .   A
O85         C92 1.304       .   A
O86         C92 1.304       .   A
C87        N316 1.540       .   S
C88        N346 1.540       .   S
C89        C410 1.540       .   S
C90        C320 1.540   1_565   S
C91        C395 1.540       .   S
C92        C350 1.540   1_556   S
Zn93        O97 1.942       .   S
Zn93        O98 1.922       .   S
Zn93       O102 1.922       .   S
Zn93       O109 1.922       .   S
Zn94        O97 1.942       .   S
Zn94        O99 1.922       .   S
Zn94       O101 1.922       .   S
Zn94       O105 1.922       .   S
Zn95        O97 1.942       .   S
Zn95       O100 1.922       .   S
Zn95       O103 1.922       .   S
Zn95       O106 1.922       .   S
Zn96        O97 1.942       .   S
Zn96       O104 1.922       .   S
Zn96       O107 1.922       .   S
Zn96       O108 1.922       .   S
O98        C110 1.304       .   A
O99        C111 1.304       .   A
O100       C112 1.304       .   A
O101       C110 1.304       .   A
O102       C112 1.304       .   A
O103       C111 1.304       .   A
O104       C113 1.304       .   A
O105       C114 1.304       .   A
O106       C113 1.304       .   A
O107       C114 1.304       .   A
O108       C115 1.304       .   A
O109       C115 1.304       .   A
C110       C215 1.540   1_565   S
C111       C425 1.540       .   S
C112       N481 1.540       .   S
C113       C230 1.540   1_665   S
C114       C455 1.540       .   S
C115       N451 1.540       .   S
Zn116      O120 1.942       .   S
Zn116      O121 1.922       .   S
Zn116      O125 1.922       .   S
Zn116      O132 1.922       .   S
Zn117      O120 1.942       .   S
Zn117      O122 1.922       .   S
Zn117      O124 1.922       .   S
Zn117      O128 1.922       .   S
Zn118      O120 1.942       .   S
Zn118      O123 1.922       .   S
Zn118      O126 1.922       .   S
Zn118      O129 1.922       .   S
Zn119      O120 1.942       .   S
Zn119      O127 1.922       .   S
Zn119      O130 1.922       .   S
Zn119      O131 1.922       .   S
O121       C133 1.304       .   A
O122       C134 1.304       .   A
O123       C135 1.304       .   A
O124       C133 1.304       .   A
O125       C135 1.304       .   A
O126       C134 1.304       .   A
O127       C136 1.304       .   A
O128       C137 1.304       .   A
O129       C136 1.304       .   A
O130       C137 1.304       .   A
O131       C138 1.304       .   A
O132       C138 1.304       .   A
C133       C290 1.540   1_565   S
C134       C500 1.540       .   S
C135       C440 1.540   1_556   S
C136       N286 1.540   1_465   S
C137       N436 1.540       .   S
C138       C485 1.540       .   S
Zn139      O143 1.942       .   S
Zn139      O144 1.922       .   S
Zn139      O148 1.922       .   S
Zn139      O155 1.922       .   S
Zn140      O143 1.942       .   S
Zn140      O145 1.922       .   S
Zn140      O147 1.922       .   S
Zn140      O151 1.922       .   S
Zn141      O143 1.942       .   S
Zn141      O146 1.922       .   S
Zn141      O149 1.922       .   S
Zn141      O152 1.922       .   S
Zn142      O143 1.942       .   S
Zn142      O150 1.922       .   S
Zn142      O153 1.922       .   S
Zn142      O154 1.922       .   S
O144       C156 1.304       .   A
O145       C157 1.304       .   A
O146       C158 1.304       .   A
O147       C156 1.304       .   A
O148       C158 1.304       .   A
O149       C157 1.304       .   A
O150       C159 1.304       .   A
O151       C160 1.304       .   A
O152       C159 1.304       .   A
O153       C160 1.304       .   A
O154       C161 1.304       .   A
O155       C161 1.304       .   A
C156       N376 1.540   1_455   S
C157       N466 1.540   1_545   S
C158       C530 1.540       .   S
C159       C380 1.540       .   S
C160       C515 1.540       .   S
C161       C470 1.540       .   S
Zn162      O166 1.942       .   S
Zn162      O167 1.922       .   S
Zn162      O171 1.922       .   S
Zn162      O178 1.922       .   S
Zn163      O166 1.942       .   S
Zn163      O168 1.922       .   S
Zn163      O170 1.922       .   S
Zn163      O174 1.922       .   S
Zn164      O166 1.942       .   S
Zn164      O169 1.922       .   S
Zn164      O172 1.922       .   S
Zn164      O175 1.922       .   S
Zn165      O166 1.942       .   S
Zn165      O173 1.922       .   S
Zn165      O176 1.922       .   S
Zn165      O177 1.922       .   S
O167       C179 1.304       .   A
O168       C180 1.304       .   A
O169       C181 1.304       .   A
O170       C179 1.304       .   A
O171       C181 1.304       .   A
O172       C180 1.304       .   A
O173       C182 1.304       .   A
O174       C183 1.304       .   A
O175       C182 1.304       .   A
O176       C183 1.304       .   A
O177       C184 1.304       .   A
O178       C184 1.304       .   A
C179       N406 1.540   1_455   S
C180       N496 1.540   1_545   S
C181       N526 1.540       .   S
C182       N421 1.540       .   S
C183       N541 1.540   1_556   S
C184       N511 1.540       .   S
C530       C531 0.041       .   A
C530       C535 0.041       .   A
C531       C532 0.041       .   A
C531       C538 0.046       .   A
C532       C533 0.040       .   A
C532       F537 0.041       .   A
C533       C534 0.040       .   A
C533       N536 0.040       .   A
C534       C535 0.040       .   A
C534       H540 0.033       .   A
C535       F539 0.041       .   A
N536       N541 0.039       .   A
C538       H542 0.033       .   A
C538       H543 0.033       .   A
C538       H544 0.033       .   A
C515       C516 0.041       .   A
C515       C520 0.041       .   A
C516       C517 0.041       .   A
C516       C523 0.046       .   A
C517       C518 0.040       .   A
C517       F522 0.041       .   A
C518       C519 0.040       .   A
C518       N521 0.040       .   A
C519       C520 0.040       .   A
C519       H525 0.033       .   A
C520       F524 0.041       .   A
N521       N526 0.039       .   A
C523       H527 0.033       .   A
C523       H528 0.033       .   A
C523       H529 0.033       .   A
C500       C501 0.041       .   A
C500       C505 0.041       .   A
C501       C502 0.041       .   A
C501       C508 0.046       .   A
C502       C503 0.040       .   A
C502       F507 0.041       .   A
C503       C504 0.040       .   A
C503       N506 0.040       .   A
C504       C505 0.040       .   A
C504       H510 0.033       .   A
C505       F509 0.041       .   A
N506       N511 0.039       .   A
C508       H512 0.033       .   A
C508       H513 0.033       .   A
C508       H514 0.033       .   A
C485       C486 0.041       .   A
C485       C490 0.041       .   A
C486       C487 0.041       .   A
C486       C493 0.046       .   A
C487       C488 0.040       .   A
C487       F492 0.041       .   A
C488       C489 0.040       .   A
C488       N491 0.040       .   A
C489       C490 0.040       .   A
C489       H495 0.033       .   A
C490       F494 0.041       .   A
N491       N496 0.039       .   A
C493       H497 0.033       .   A
C493       H498 0.033       .   A
C493       H499 0.033       .   A
C470       C471 0.041       .   A
C470       C475 0.041       .   A
C471       C472 0.041       .   A
C471       C478 0.046       .   A
C472       C473 0.040       .   A
C472       F477 0.041       .   A
C473       C474 0.040       .   A
C473       N476 0.040       .   A
C474       C475 0.040       .   A
C474       H480 0.033       .   A
C475       F479 0.041       .   A
N476       N481 0.039       .   A
C478       H482 0.033       .   A
C478       H483 0.033       .   A
C478       H484 0.033       .   A
C455       C456 0.041       .   A
C455       C460 0.041       .   A
C456       C457 0.041       .   A
C456       C463 0.046       .   A
C457       C458 0.040       .   A
C457       F462 0.041       .   A
C458       C459 0.040       .   A
C458       N461 0.040       .   A
C459       C460 0.040       .   A
C459       H465 0.033       .   A
C460       F464 0.041       .   A
N461       N466 0.039       .   A
C463       H467 0.033       .   A
C463       H468 0.033       .   A
C463       H469 0.033       .   A
C440       C441 0.041       .   A
C440       C445 0.041       .   A
C441       C442 0.041       .   A
C441       C448 0.046       .   A
C442       C443 0.040       .   A
C442       F447 0.041       .   A
C443       C444 0.040       .   A
C443       N446 0.040       .   A
C444       C445 0.040       .   A
C444       H450 0.033       .   A
C445       F449 0.041       .   A
N446       N451 0.039       .   A
C448       H452 0.033       .   A
C448       H453 0.033       .   A
C448       H454 0.033       .   A
C425       C426 0.041       .   A
C425       C430 0.041       .   A
C426       C427 0.041       .   A
C426       C433 0.046       .   A
C427       C428 0.040       .   A
C427       F432 0.041       .   A
C428       C429 0.040       .   A
C428       N431 0.040       .   A
C429       C430 0.040       .   A
C429       H435 0.033       .   A
C430       F434 0.041       .   A
N431       N436 0.039       .   A
C433       H437 0.033       .   A
C433       H438 0.033       .   A
C433       H439 0.033       .   A
C410       C411 0.041       .   A
C410       C415 0.041       .   A
C411       C412 0.041       .   A
C411       C418 0.046       .   A
C412       C413 0.040       .   A
C412       F417 0.041       .   A
C413       C414 0.040       .   A
C413       N416 0.040       .   A
C414       C415 0.040       .   A
C414       H420 0.033       .   A
C415       F419 0.041       .   A
N416       N421 0.039       .   A
C418       H422 0.033       .   A
C418       H423 0.033       .   A
C418       H424 0.033       .   A
C395       C396 0.041       .   A
C395       C400 0.041       .   A
C396       C397 0.041       .   A
C396       C403 0.046       .   A
C397       C398 0.040       .   A
C397       F402 0.041       .   A
C398       C399 0.040       .   A
C398       N401 0.040       .   A
C399       C400 0.040       .   A
C399       H405 0.033       .   A
C400       F404 0.041       .   A
N401       N406 0.039       .   A
C403       H407 0.033       .   A
C403       H408 0.033       .   A
C403       H409 0.033       .   A
C380       C381 0.041       .   A
C380       C385 0.041       .   A
C381       C382 0.041       .   A
C381       C388 0.046       .   A
C382       C383 0.040       .   A
C382       F387 0.041       .   A
C383       C384 0.040       .   A
C383       N386 0.040       .   A
C384       C385 0.040       .   A
C384       H390 0.033       .   A
C385       F389 0.041       .   A
N386       N391 0.039       .   A
C388       H392 0.033       .   A
C388       H393 0.033       .   A
C388       H394 0.033       .   A
C365       C366 0.041       .   A
C365       C370 0.041       .   A
C366       C367 0.041       .   A
C366       C373 0.046       .   A
C367       C368 0.040       .   A
C367       F372 0.041       .   A
C368       C369 0.040       .   A
C368       N371 0.040       .   A
C369       C370 0.040       .   A
C369       H375 0.033       .   A
C370       F374 0.041       .   A
N371       N376 0.039       .   A
C373       H377 0.033       .   A
C373       H378 0.033       .   A
C373       H379 0.033       .   A
C350       C351 0.041       .   A
C350       C355 0.041       .   A
C351       C352 0.041       .   A
C351       C358 0.046       .   A
C352       C353 0.040       .   A
C352       F357 0.041       .   A
C353       C354 0.040       .   A
C353       N356 0.040       .   A
C354       C355 0.040       .   A
C354       H360 0.033       .   A
C355       F359 0.041       .   A
N356       N361 0.039       .   A
C358       H362 0.033       .   A
C358       H363 0.033       .   A
C358       H364 0.033       .   A
C335       C336 0.041       .   A
C335       C340 0.041       .   A
C336       C337 0.041       .   A
C336       C343 0.046       .   A
C337       C338 0.040       .   A
C337       F342 0.041       .   A
C338       C339 0.040       .   A
C338       N341 0.040       .   A
C339       C340 0.040       .   A
C339       H345 0.033       .   A
C340       F344 0.041       .   A
N341       N346 0.039       .   A
C343       H347 0.033       .   A
C343       H348 0.033       .   A
C343       H349 0.033       .   A
C320       C321 0.041       .   A
C320       C325 0.041       .   A
C321       C322 0.041       .   A
C321       C328 0.046       .   A
C322       C323 0.040       .   A
C322       F327 0.041       .   A
C323       C324 0.040       .   A
C323       N326 0.040       .   A
C324       C325 0.040       .   A
C324       H330 0.033       .   A
C325       F329 0.041       .   A
N326       N331 0.039       .   A
C328       H332 0.033       .   A
C328       H333 0.033       .   A
C328       H334 0.033       .   A
C305       C306 0.041       .   A
C305       C310 0.041       .   A
C306       C307 0.041       .   A
C306       C313 0.046       .   A
C307       C308 0.040       .   A
C307       F312 0.041       .   A
C308       C309 0.040       .   A
C308       N311 0.040       .   A
C309       C310 0.040       .   A
C309       H315 0.033       .   A
C310       F314 0.041       .   A
N311       N316 0.039       .   A
C313       H317 0.033       .   A
C313       H318 0.033       .   A
C313       H319 0.033       .   A
C290       C291 0.041       .   A
C290       C295 0.041       .   A
C291       C292 0.041       .   A
C291       C298 0.046       .   A
C292       C293 0.040       .   A
C292       F297 0.041       .   A
C293       C294 0.040       .   A
C293       N296 0.040       .   A
C294       C295 0.040       .   A
C294       H300 0.033       .   A
C295       F299 0.041       .   A
N296       N301 0.039       .   A
C298       H302 0.033       .   A
C298       H303 0.033       .   A
C298       H304 0.033       .   A
C275       C276 0.041       .   A
C275       C280 0.041       .   A
C276       C277 0.041       .   A
C276       C283 0.046       .   A
C277       C278 0.040       .   A
C277       F282 0.041       .   A
C278       C279 0.040       .   A
C278       N281 0.040       .   A
C279       C280 0.040       .   A
C279       H285 0.033       .   A
C280       F284 0.041       .   A
N281       N286 0.039       .   A
C283       H287 0.033       .   A
C283       H288 0.033       .   A
C283       H289 0.033       .   A
C260       C261 0.041       .   A
C260       C265 0.041       .   A
C261       C262 0.041       .   A
C261       C268 0.046       .   A
C262       C263 0.040       .   A
C262       F267 0.041       .   A
C263       C264 0.040       .   A
C263       N266 0.040       .   A
C264       C265 0.040       .   A
C264       H270 0.033       .   A
C265       F269 0.041       .   A
N266       N271 0.039       .   A
C268       H272 0.033       .   A
C268       H273 0.033       .   A
C268       H274 0.033       .   A
C245       C246 0.041       .   A
C245       C250 0.041       .   A
C246       C247 0.041       .   A
C246       C253 0.046       .   A
C247       C248 0.040       .   A
C247       F252 0.041       .   A
C248       C249 0.040       .   A
C248       N251 0.040       .   A
C249       C250 0.040       .   A
C249       H255 0.033       .   A
C250       F254 0.041       .   A
N251       N256 0.039       .   A
C253       H257 0.033       .   A
C253       H258 0.033       .   A
C253       H259 0.033       .   A
C230       C231 0.041       .   A
C230       C235 0.041       .   A
C231       C232 0.041       .   A
C231       C238 0.046       .   A
C232       C233 0.040       .   A
C232       F237 0.041       .   A
C233       C234 0.040       .   A
C233       N236 0.040       .   A
C234       C235 0.040       .   A
C234       H240 0.033       .   A
C235       F239 0.041       .   A
N236       N241 0.039       .   A
C238       H242 0.033       .   A
C238       H243 0.033       .   A
C238       H244 0.033       .   A
C215       C216 0.041       .   A
C215       C220 0.041       .   A
C216       C217 0.041       .   A
C216       C223 0.046       .   A
C217       C218 0.040       .   A
C217       F222 0.041       .   A
C218       C219 0.040       .   A
C218       N221 0.040       .   A
C219       C220 0.040       .   A
C219       H225 0.033       .   A
C220       F224 0.041       .   A
N221       N226 0.039       .   A
C223       H227 0.033       .   A
C223       H228 0.033       .   A
C223       H229 0.033       .   A
C200       C201 0.041       .   A
C200       C205 0.041       .   A
C201       C202 0.041       .   A
C201       C208 0.046       .   A
C202       C203 0.040       .   A
C202       F207 0.041       .   A
C203       C204 0.040       .   A
C203       N206 0.040       .   A
C204       C205 0.040       .   A
C204       H210 0.033       .   A
C205       F209 0.041       .   A
N206       N211 0.039       .   A
C208       H212 0.033       .   A
C208       H213 0.033       .   A
C208       H214 0.033       .   A
C185       C186 0.041       .   A
C185       C190 0.041       .   A
C186       C187 0.041       .   A
C186       C193 0.046       .   A
C187       C188 0.040       .   A
C187       F192 0.041       .   A
C188       C189 0.040       .   A
C188       N191 0.040       .   A
C189       C190 0.040       .   A
C189       H195 0.033       .   A
C190       F194 0.041       .   A
N191       N196 0.039       .   A
C193       H197 0.033       .   A
C193       H198 0.033       .   A
C193       H199 0.033       .   A
