data_pcu_v1-6c_Zn_1_Ch_1-34_fer_tobacco
_audit_creation_date              2021-04-07
_audit_creation_method            'tobacco_3.0'
_symmetry_space_group_name_H-M    'P1'
_symmetry_Int_Tables_number       1
_symmetry_cell_setting            triclinic
loop_
_symmetry_equiv_pos_as_xyz
  x,y,z
_cell_length_a                    41.16847934877366
_cell_length_b                    41.16847934877366
_cell_length_c                    41.16847934877366
_cell_angle_alpha                 90.0
_cell_angle_beta                  90.0
_cell_angle_gamma                 90.0
loop_
_atom_site_label
_atom_site_type_symbol
_atom_site_fract_x
_atom_site_fract_y
_atom_site_fract_z
_atom_site_charge
Zn1       Zn   -0.0272344283   -0.0272344283    0.0272344283          1.4972
Zn2       Zn    0.0272344283    0.0272344283    0.0272344283          1.4936
Zn3       Zn    0.0272344283   -0.0272344283   -0.0272344283          1.4911
Zn4       Zn   -0.0272344283    0.0272344283   -0.0272344283          1.4948
O5         O    0.0000000000    0.0000000000    0.0000000000         -2.3707
O6         O   -0.0200153130   -0.0200153130    0.0727886977          -1.277
O7         O    0.0727886977    0.0200153130    0.0200153130         -1.2752
O8         O    0.0200153130   -0.0727886977   -0.0200153130         -1.2704
O9         O    0.0200153130    0.0200153130    0.0727886977         -1.2772
O10        O   -0.0200153130   -0.0727886977    0.0200153130         -1.2732
O11        O    0.0727886977   -0.0200153130   -0.0200153130          -1.279
O12        O   -0.0200153130    0.0200153130   -0.0727886977         -1.2729
O13        O    0.0200153130    0.0727886977    0.0200153130         -1.2805
O14        O    0.0200153130   -0.0200153130   -0.0727886977         -1.2744
O15        O   -0.0200153130    0.0727886977   -0.0200153130         -1.2791
O16        O   -0.0727886977    0.0200153130   -0.0200153130         -1.2781
O17        O   -0.0727886977   -0.0200153130    0.0200153130          -1.276
C18        C   -0.0000000000   -0.0000000000    0.0870277469          0.2419
C19        C    0.0870277469   -0.0000000000   -0.0000000000          0.2468
C20        C   -0.0000000000   -0.0870277469    0.0000000000          0.2364
C21        C    0.0000000000    0.0000000000   -0.0870277469          0.2401
C22        C    0.0000000000    0.0870277469   -0.0000000000          0.2515
C23        C   -0.0870277469    0.0000000000    0.0000000000           0.242
Zn24      Zn    0.9727655717    0.0272344283    0.4727655717          1.4972
Zn25      Zn    1.0272344283   -0.0272344283    0.4727655717          1.4936
Zn26      Zn    1.0272344283    0.0272344283    0.5272344283          1.4911
Zn27      Zn    0.9727655717   -0.0272344283    0.5272344283          1.4948
O28        O    1.0000000000    0.0000000000    0.5000000000         -2.3707
O29        O    0.9799846870    0.0200153130    0.4272113023          -1.277
O30        O    1.0727886977   -0.0200153130    0.4799846870         -1.2752
O31        O    1.0200153130    0.0727886977    0.5200153130         -1.2704
O32        O    1.0200153130   -0.0200153130    0.4272113023         -1.2772
O33        O    0.9799846870    0.0727886977    0.4799846870         -1.2732
O34        O    1.0727886977    0.0200153130    0.5200153130          -1.279
O35        O    0.9799846870   -0.0200153130    0.5727886977         -1.2729
O36        O    1.0200153130   -0.0727886977    0.4799846870         -1.2805
O37        O    1.0200153130    0.0200153130    0.5727886977         -1.2744
O38        O    0.9799846870   -0.0727886977    0.5200153130         -1.2791
O39        O    0.9272113023   -0.0200153130    0.5200153130         -1.2781
O40        O    0.9272113023    0.0200153130    0.4799846870          -1.276
C41        C    1.0000000000    0.0000000000    0.4129722531          0.2419
C42        C    1.0870277469    0.0000000000    0.5000000000          0.2468
C43        C    1.0000000000    0.0870277469    0.5000000000          0.2364
C44        C    1.0000000000    0.0000000000    0.5870277469          0.2401
C45        C    1.0000000000   -0.0870277469    0.5000000000          0.2515
C46        C    0.9129722531    0.0000000000    0.5000000000           0.242
Zn47      Zn    0.9727655717    0.4727655717   -0.0272344283          1.4972
Zn48      Zn    1.0272344283    0.4727655717    0.0272344283          1.4936
Zn49      Zn    1.0272344283    0.5272344283   -0.0272344283          1.4911
Zn50      Zn    0.9727655717    0.5272344283    0.0272344283          1.4948
O51        O    1.0000000000    0.5000000000    0.0000000000         -2.3707
O52        O    0.9799846870    0.4272113023   -0.0200153130          -1.277
O53        O    1.0727886977    0.4799846870    0.0200153130         -1.2752
O54        O    1.0200153130    0.5200153130   -0.0727886977         -1.2704
O55        O    1.0200153130    0.4272113023    0.0200153130         -1.2772
O56        O    0.9799846870    0.4799846870   -0.0727886977         -1.2732
O57        O    1.0727886977    0.5200153130   -0.0200153130          -1.279
O58        O    0.9799846870    0.5727886977    0.0200153130         -1.2729
O59        O    1.0200153130    0.4799846870    0.0727886977         -1.2805
O60        O    1.0200153130    0.5727886977   -0.0200153130         -1.2744
O61        O    0.9799846870    0.5200153130    0.0727886977         -1.2791
O62        O    0.9272113023    0.5200153130    0.0200153130         -1.2781
O63        O    0.9272113023    0.4799846870   -0.0200153130          -1.276
C64        C    1.0000000000    0.4129722531    0.0000000000          0.2419
C65        C    1.0870277469    0.5000000000    0.0000000000          0.2468
C66        C    1.0000000000    0.5000000000   -0.0870277469          0.2364
C67        C    1.0000000000    0.5870277469    0.0000000000          0.2401
C68        C    1.0000000000    0.5000000000    0.0870277469          0.2515
C69        C    0.9129722531    0.5000000000    0.0000000000           0.242
Zn70      Zn    1.0272344283    0.4727655717    0.5272344283          1.4972
Zn71      Zn    0.9727655717    0.4727655717    0.4727655717          1.4936
Zn72      Zn    0.9727655717    0.5272344283    0.5272344283          1.4911
Zn73      Zn    1.0272344283    0.5272344283    0.4727655717          1.4948
O74        O    1.0000000000    0.5000000000    0.5000000000         -2.3707
O75        O    1.0200153130    0.4272113023    0.5200153130          -1.277
O76        O    0.9272113023    0.4799846870    0.4799846870         -1.2752
O77        O    0.9799846870    0.5200153130    0.5727886977         -1.2704
O78        O    0.9799846870    0.4272113023    0.4799846870         -1.2772
O79        O    1.0200153130    0.4799846870    0.5727886977         -1.2732
O80        O    0.9272113023    0.5200153130    0.5200153130          -1.279
O81        O    1.0200153130    0.5727886977    0.4799846870         -1.2729
O82        O    0.9799846870    0.4799846870    0.4272113023         -1.2805
O83        O    0.9799846870    0.5727886977    0.5200153130         -1.2744
O84        O    1.0200153130    0.5200153130    0.4272113023         -1.2791
O85        O    1.0727886977    0.5200153130    0.4799846870         -1.2781
O86        O    1.0727886977    0.4799846870    0.5200153130          -1.276
C87        C    1.0000000000    0.4129722531    0.5000000000          0.2419
C88        C    0.9129722531    0.5000000000    0.5000000000          0.2468
C89        C    1.0000000000    0.5000000000    0.5870277469          0.2364
C90        C    1.0000000000    0.5870277469    0.5000000000          0.2401
C91        C    1.0000000000    0.5000000000    0.4129722531          0.2515
C92        C    1.0870277469    0.5000000000    0.5000000000           0.242
Zn93      Zn    0.4727655717    0.9727655717   -0.0272344283          1.4972
Zn94      Zn    0.4727655717    1.0272344283    0.0272344283          1.4936
Zn95      Zn    0.5272344283    0.9727655717    0.0272344283          1.4911
Zn96      Zn    0.5272344283    1.0272344283   -0.0272344283          1.4948
O97        O    0.5000000000    1.0000000000    0.0000000000         -2.3707
O98        O    0.4272113023    0.9799846870   -0.0200153130          -1.277
O99        O    0.4799846870    1.0200153130    0.0727886977         -1.2752
O100       O    0.5200153130    0.9272113023    0.0200153130         -1.2704
O101       O    0.4272113023    1.0200153130    0.0200153130         -1.2772
O102       O    0.4799846870    0.9272113023   -0.0200153130         -1.2732
O103       O    0.5200153130    0.9799846870    0.0727886977          -1.279
O104       O    0.5727886977    1.0200153130   -0.0200153130         -1.2729
O105       O    0.4799846870    1.0727886977    0.0200153130         -1.2805
O106       O    0.5727886977    0.9799846870    0.0200153130         -1.2744
O107       O    0.5200153130    1.0727886977   -0.0200153130         -1.2791
O108       O    0.5200153130    1.0200153130   -0.0727886977         -1.2781
O109       O    0.4799846870    0.9799846870   -0.0727886977          -1.276
C110       C    0.4129722531    1.0000000000    0.0000000000          0.2419
C111       C    0.5000000000    1.0000000000    0.0870277469          0.2468
C112       C    0.5000000000    0.9129722531    0.0000000000          0.2364
C113       C    0.5870277469    1.0000000000    0.0000000000          0.2401
C114       C    0.5000000000    1.0870277469    0.0000000000          0.2515
C115       C    0.5000000000    1.0000000000   -0.0870277469           0.242
Zn116     Zn    0.4727655717    1.0272344283    0.5272344283          1.4972
Zn117     Zn    0.4727655717    0.9727655717    0.4727655717          1.4936
Zn118     Zn    0.5272344283    1.0272344283    0.4727655717          1.4911
Zn119     Zn    0.5272344283    0.9727655717    0.5272344283          1.4948
O120       O    0.5000000000    1.0000000000    0.5000000000         -2.3707
O121       O    0.4272113023    1.0200153130    0.5200153130          -1.277
O122       O    0.4799846870    0.9799846870    0.4272113023         -1.2752
O123       O    0.5200153130    1.0727886977    0.4799846870         -1.2704
O124       O    0.4272113023    0.9799846870    0.4799846870         -1.2772
O125       O    0.4799846870    1.0727886977    0.5200153130         -1.2732
O126       O    0.5200153130    1.0200153130    0.4272113023          -1.279
O127       O    0.5727886977    0.9799846870    0.5200153130         -1.2729
O128       O    0.4799846870    0.9272113023    0.4799846870         -1.2805
O129       O    0.5727886977    1.0200153130    0.4799846870         -1.2744
O130       O    0.5200153130    0.9272113023    0.5200153130         -1.2791
O131       O    0.5200153130    0.9799846870    0.5727886977         -1.2781
O132       O    0.4799846870    1.0200153130    0.5727886977          -1.276
C133       C    0.4129722531    1.0000000000    0.5000000000          0.2419
C134       C    0.5000000000    1.0000000000    0.4129722531          0.2468
C135       C    0.5000000000    1.0870277469    0.5000000000          0.2364
C136       C    0.5870277469    1.0000000000    0.5000000000          0.2401
C137       C    0.5000000000    0.9129722531    0.5000000000          0.2515
C138       C    0.5000000000    1.0000000000    0.5870277469           0.242
Zn139     Zn    0.4727655717    0.4727655717   -0.0272344283          1.4972
Zn140     Zn    0.4727655717    0.5272344283    0.0272344283          1.4936
Zn141     Zn    0.5272344283    0.4727655717    0.0272344283          1.4911
Zn142     Zn    0.5272344283    0.5272344283   -0.0272344283          1.4948
O143       O    0.5000000000    0.5000000000    0.0000000000         -2.3707
O144       O    0.4272113023    0.4799846870   -0.0200153130          -1.277
O145       O    0.4799846870    0.5200153130    0.0727886977         -1.2752
O146       O    0.5200153130    0.4272113023    0.0200153130         -1.2704
O147       O    0.4272113023    0.5200153130    0.0200153130         -1.2772
O148       O    0.4799846870    0.4272113023   -0.0200153130         -1.2732
O149       O    0.5200153130    0.4799846870    0.0727886977          -1.279
O150       O    0.5727886977    0.5200153130   -0.0200153130         -1.2729
O151       O    0.4799846870    0.5727886977    0.0200153130         -1.2805
O152       O    0.5727886977    0.4799846870    0.0200153130         -1.2744
O153       O    0.5200153130    0.5727886977   -0.0200153130         -1.2791
O154       O    0.5200153130    0.5200153130   -0.0727886977         -1.2781
O155       O    0.4799846870    0.4799846870   -0.0727886977          -1.276
C156       C    0.4129722531    0.5000000000    0.0000000000          0.2419
C157       C    0.5000000000    0.5000000000    0.0870277469          0.2468
C158       C    0.5000000000    0.4129722531    0.0000000000          0.2364
C159       C    0.5870277469    0.5000000000    0.0000000000          0.2401
C160       C    0.5000000000    0.5870277469    0.0000000000          0.2515
C161       C    0.5000000000    0.5000000000   -0.0870277469           0.242
Zn162     Zn    0.4727655717    0.5272344283    0.4727655717          1.4972
Zn163     Zn    0.4727655717    0.4727655717    0.5272344283          1.4936
Zn164     Zn    0.5272344283    0.4727655717    0.4727655717          1.4911
Zn165     Zn    0.5272344283    0.5272344283    0.5272344283          1.4948
O166       O    0.5000000000    0.5000000000    0.5000000000         -2.3707
O167       O    0.4272113023    0.5200153130    0.4799846870          -1.277
O168       O    0.4799846870    0.4272113023    0.5200153130         -1.2752
O169       O    0.5200153130    0.4799846870    0.4272113023         -1.2704
O170       O    0.4272113023    0.4799846870    0.5200153130         -1.2772
O171       O    0.4799846870    0.5200153130    0.4272113023         -1.2732
O172       O    0.5200153130    0.4272113023    0.4799846870          -1.279
O173       O    0.5727886977    0.5200153130    0.5200153130         -1.2729
O174       O    0.4799846870    0.4799846870    0.5727886977         -1.2805
O175       O    0.5727886977    0.4799846870    0.4799846870         -1.2744
O176       O    0.5200153130    0.5200153130    0.5727886977         -1.2791
O177       O    0.5200153130    0.5727886977    0.5200153130         -1.2781
O178       O    0.4799846870    0.5727886977    0.4799846870          -1.276
C179       C    0.4129722531    0.5000000000    0.5000000000          0.2419
C180       C    0.5000000000    0.4129722531    0.5000000000          0.2468
C181       C    0.5000000000    0.5000000000    0.4129722531          0.2364
C182       C    0.5870277469    0.5000000000    0.5000000000          0.2401
C183       C    0.5000000000    0.5000000000    0.5870277469          0.2515
C184       C    0.5000000000    0.5870277469    0.5000000000           0.242
C599       C    0.5000000000    0.5000000000   -0.1244350066          0.4675
C600       C    0.4999959636    0.4732936946   -0.1441054114          0.4676
C601       C    0.5000553560    0.4765106347   -0.1766685472          0.4675
C602       C    0.5001195342    0.5055145732   -0.1913772004          0.4675
C603       C    0.5001237172    0.5315781321   -0.1718522203          0.4675
C604       C    0.5000891004    0.5288864205   -0.1394013307          0.4675
C605       C    0.5001309153    0.5091350154   -0.2240415285          0.4675
H606       H    0.5000462279    0.4545644586   -0.1915025531          0.4676
Cl607     Cl    0.4999090314    0.4331139160   -0.1313123200         -0.5324
H608       H    0.5000986539    0.5509988561   -0.1249644145          0.4675
H609       H    0.5001845245    0.5558079007   -0.1823548009          0.4674
C610       C    0.5001086830    0.4883556482   -0.2496949238          0.4676
N611       N    0.5000481704    0.4993664044   -0.2830942676         -0.5324
H612       H    0.5001170004    0.4628687587   -0.2578125454          0.4676
H613       H    0.5001395545    0.5343802450   -0.2318386669          0.4675
N614       N    0.4999838817    0.5013158116   -0.3141628328         -0.5323
C615       C    0.4999156149    0.5017236072   -0.3415173955         -0.5322
C616       C    0.5000000000    0.5000000000   -0.3755649934         -0.5322
C581       C    0.5000000000    0.5000000000    0.1244350066          0.4675
C582       C    0.4732936952    0.4999931162    0.1441054114          0.4676
C583       C    0.4765106289    0.5000528516    0.1766685472          0.4675
C584       C    0.5055145604    0.5001201222    0.1913772004          0.4675
C585       C    0.5315781187    0.5001270840    0.1718522203          0.4675
C586       C    0.5288864108    0.5000921802    0.1394013307          0.4675
C587       C    0.5091350014    0.5001318892    0.2240415285          0.4675
H588       H    0.4545644539    0.5000413836    0.1915025531          0.4676
Cl589     Cl    0.4331139261    0.4999019002    0.1313123200         -0.5324
H590       H    0.5509988453    0.5001040912    0.1249644145          0.4675
H591       H    0.5558078807    0.5001904746    0.1823548009          0.4674
C592       C    0.4883556367    0.5001074416    0.2496949238          0.4676
N593       N    0.4993663992    0.5000481028    0.2830942676         -0.5324
H594       H    0.4628687464    0.5001130415    0.2578125454          0.4676
H595       H    0.5343802299    0.5001432200    0.2318386669          0.4675
N596       N    0.5013158133    0.4999840219    0.3141628328         -0.5323
C597       C    0.5017236162    0.4999157987    0.3415173955         -0.5322
C598       C    0.5000000000    0.5000000000    0.3755649934         -0.5322
C563       C    0.5000000000    0.8755649934    0.5000000000          0.4675
C564       C    0.5000894270    0.8558945886    0.4732938440          0.4676
C565       C    0.5000197490    0.8233314528    0.4765105777          0.4675
C566       C    0.4998628341    0.8086227996    0.5055141628          0.4675
C567       C    0.4997753157    0.8281477797    0.5315775751          0.4675
C568       C    0.4998185388    0.8605986693    0.5288859880          0.4675
C569       C    0.4998398772    0.7759584715    0.5091345501          0.4675
H570       H    0.5000990476    0.8084974469    0.4545645431          0.4676
Cl571     Cl    0.5003048292    0.8686876800    0.4331145488         -0.5324
H572       H    0.4997382833    0.8750355855    0.5509982800          0.4675
H573       H    0.4996370367    0.8176451991    0.5558070255          0.4674
C574       C    0.4999285491    0.7503050762    0.4883553602          0.4676
N575       N    0.4999538557    0.7169057324    0.4993662536         -0.5324
H576       H    0.5000017234    0.7421874546    0.4628685744          0.4676
H577       H    0.4997505191    0.7681613331    0.5343796230          0.4675
N578       N    0.5000119111    0.6858371672    0.5013158564         -0.5323
C579       C    0.5000788736    0.6584826045    0.5017238682         -0.5322
C580       C    0.5000000000    0.6244350066    0.5000000000         -0.5322
C545       C    0.5000000000    1.1244350066    0.5000000000          0.4675
C546       C    0.5267063042    1.1441054114    0.4999910500          0.4676
C547       C    0.5234893751    1.1766685472    0.5000510343          0.4675
C548       C    0.4944854489    1.1913772004    0.5001205488          0.4675
C549       C    0.4684218912    1.1718522203    0.5001295271          0.4675
C550       C    0.4711135964    1.1394013307    0.5000944151          0.4675
C551       C    0.4908650089    1.2240415285    0.5001325960          0.4675
H552       H    0.5454355491    1.1915025531    0.5000378684          0.4676
Cl553     Cl    0.5668860661    1.1313123200    0.4998967254         -0.5324
H554       H    0.4490011629    1.1249644145    0.5001080369          0.4675
H555       H    0.4441921342    1.1823548009    0.5001947923          0.4674
C556       C    0.5116443716    1.2496949238    0.5001065407          0.4676
N557       N    0.5006336045    1.2830942676    0.5000480538         -0.5324
H558       H    0.5371312622    1.2578125454    0.5001101688          0.4676
H559       H    0.4656197813    1.2318386669    0.5001458799          0.4675
N560       N    0.4986841855    1.3141628328    0.4999841237         -0.5323
C561       C    0.4982763773    1.3415173955    0.4999159320         -0.5322
C562       C    0.5000000000    1.3755649934    0.5000000000         -0.5322
C527       C    0.5000000000    0.8755649934    0.0000000000          0.4675
C528       C    0.4751299929    0.8558945886   -0.0097318812          0.4676
C529       C    0.4781042821    0.8233314528   -0.0085047566          0.4675
C530       C    0.5050921585    0.8086227996    0.0021200774          0.4675
C531       C    0.5293635249    0.8281477797    0.0116179662          0.4675
C532       C    0.5268693541    0.8605986693    0.0106052364          0.4675
C533       C    0.5084597164    0.7759584715    0.0034494700          0.4675
H534       H    0.4576692195    0.8084974469   -0.0165074401          0.4676
Cl535     Cl    0.4377423889    0.8686876800   -0.0244488521         -0.5324
H536       H    0.5474590986    0.8750355855    0.0186688782          0.4675
H537       H    0.5519064635    0.8176451991    0.0205006068          0.4674
C538       C    0.4891160716    0.7503050762   -0.0041403918          0.4676
N539       N    0.4993923882    0.7169057324   -0.0001859346         -0.5324
H540       H    0.4653772018    0.7421874546   -0.0134165797          0.4676
H541       H    0.5319673527    0.7681613331    0.0126534217          0.4675
N542       N    0.5012312815    0.6858371672    0.0004642907         -0.5323
C543       C    0.5016359270    0.6584826045    0.0005492590         -0.5322
C544       C    0.5000000000    0.6244350066    0.0000000000         -0.5322
C509       C    0.5000000000    1.1244350066    0.0000000000          0.4675
C510       C    0.5210678289    1.1441054114   -0.0164125973          0.4676
C511       C    0.5185662726    1.1766685472   -0.0143891233          0.4675
C512       C    0.4957226477    1.1913772004    0.0034826806          0.4675
C513       C    0.4751620127    1.1718522203    0.0195004646          0.4675
C514       C    0.4772644058    1.1394013307    0.0178192589          0.4675
C515       C    0.4928732428    1.2240415285    0.0057162030          0.4675
H516       H    0.5358754030    1.1915025531   -0.0278809257          0.4676
Cl517     Cl    0.5527148064    1.1313123200   -0.0411692324         -0.5324
H518       H    0.4598243639    1.1249644145    0.0314135532          0.4675
H519       H    0.4560829640    1.1823548009    0.0344361697          0.4674
C520       C    0.5092537516    1.2496949238   -0.0070690043          0.4676
N521       N    0.5005294818    1.2830942676   -0.0003513016         -0.5324
H522       H    0.5293670960    1.2578125454   -0.0227225975          0.4676
H523       H    0.4729609780    1.2318386669    0.0212346889          0.4675
N524       N    0.4989519685    1.3141628328    0.0007957700         -0.5323
C525       C    0.4985882867    1.3415173955    0.0009924758         -0.5322
C526       C    0.5000000000    1.3755649934    0.0000000000         -0.5322
C491       C    0.5000000000    1.0000000000   -0.1244350066          0.4675
C492       C    0.5000040364    1.0267063054   -0.1441054114          0.4676
C493       C    0.4999446440    1.0234893653   -0.1766685472          0.4675
C494       C    0.4998804658    0.9944854268   -0.1913772004          0.4675
C495       C    0.4998762828    0.9684218679   -0.1718522203          0.4675
C496       C    0.4999108996    0.9711135795   -0.1394013307          0.4675
C497       C    0.4998690847    0.9908649846   -0.2240415285          0.4675
H498       H    0.4999537721    1.0454355414   -0.1915025531          0.4676
Cl499     Cl    0.5000909686    1.0668860840   -0.1313123200         -0.5324
H500       H    0.4999013461    0.9490011439   -0.1249644145          0.4675
H501       H    0.4998154755    0.9441920993   -0.1823548009          0.4674
C502       C    0.4998913170    1.0116443518   -0.2496949238          0.4676
N503       N    0.4999518296    1.0006335956   -0.2830942676         -0.5324
H504       H    0.4998829996    1.0371312413   -0.2578125454          0.4676
H505       H    0.4998604455    0.9656197550   -0.2318386669          0.4675
N506       N    0.5000161183    0.9986841884   -0.3141628328         -0.5323
C507       C    0.5000843851    0.9982763928   -0.3415173955         -0.5322
C508       C    0.5000000000    1.0000000000   -0.3755649934         -0.5322
C473       C    0.5000000000    1.0000000000    0.3755649934          0.4675
C474       C    0.4732936952    1.0000068838    0.3558945886          0.4676
C475       C    0.4765106289    0.9999471484    0.3233314528          0.4675
C476       C    0.5055145604    0.9998798778    0.3086227996          0.4675
C477       C    0.5315781187    0.9998729160    0.3281477797          0.4675
C478       C    0.5288864108    0.9999078198    0.3605986693          0.4675
C479       C    0.5091350014    0.9998681108    0.2759584715          0.4675
H480       H    0.4545644539    0.9999586164    0.3084974469          0.4676
Cl481     Cl    0.4331139261    1.0000980998    0.3686876800         -0.5324
H482       H    0.5509988453    0.9998959088    0.3750355855          0.4675
H483       H    0.5558078807    0.9998095254    0.3176451991          0.4674
C484       C    0.4883556367    0.9998925584    0.2503050762          0.4676
N485       N    0.4993663992    0.9999518972    0.2169057324         -0.5324
H486       H    0.4628687464    0.9998869585    0.2421874546          0.4676
H487       H    0.5343802299    0.9998567800    0.2681613331          0.4675
N488       N    0.5013158133    1.0000159781    0.1858371672         -0.5323
C489       C    0.5017236162    1.0000842013    0.1584826045         -0.5322
C490       C    0.5000000000    1.0000000000    0.1244350066         -0.5322
C455       C    0.8755649934    0.5000000000    0.5000000000          0.4675
C456       C    0.8558945886    0.4811004133    0.5188688205          0.4676
C457       C    0.8233314528    0.4833353730    0.5165542609          0.4675
C458       C    0.8086227996    0.5038187143    0.4960197705          0.4675
C459       C    0.8281477797    0.5222632683    0.4776048975          0.4675
C460       C    0.8605986693    0.5203825577    0.4795308874          0.4675
C461       C    0.7759584715    0.5063731848    0.4934541494          0.4675
H462       H    0.8084974469    0.4678085519    0.5320640177          0.4676
Cl463     Cl    0.8686876800    0.4527230055    0.5473142927         -0.5324
H464       H    0.8750355855    0.5360267550    0.4639033799          0.4675
H465       H    0.8176451991    0.5393698845    0.4604453791          0.4674
C466       C    0.7503050762    0.4916814757    0.5081489198          0.4676
N467       N    0.7169057324    0.4995175191    0.5004134924         -0.5324
H468       H    0.7421874546    0.4736362516    0.5261475724          0.4676
H469       H    0.7681613331    0.5242353861    0.4756142095          0.4675
N470       N    0.6858371672    0.5009427038    0.4990818881         -0.5323
C471       C    0.6584826045    0.5012795624    0.4988421301         -0.5322
C472       C    0.6244350066    0.5000000000    0.5000000000         -0.5322
C437       C    1.1244350066    0.5000000000    0.5000000000          0.4675
C438       C    1.1441054114    0.5188688205    0.4811004133          0.4676
C439       C    1.1766685472    0.5165542609    0.4833353730          0.4675
C440       C    1.1913772004    0.4960197705    0.5038187143          0.4675
C441       C    1.1718522203    0.4776048975    0.5222632683          0.4675
C442       C    1.1394013307    0.4795308874    0.5203825577          0.4675
C443       C    1.2240415285    0.4934541494    0.5063731848          0.4675
H444       H    1.1915025531    0.5320640177    0.4678085519          0.4676
Cl445     Cl    1.1313123200    0.5473142927    0.4527230055         -0.5324
H446       H    1.1249644145    0.4639033799    0.5360267550          0.4675
H447       H    1.1823548009    0.4604453791    0.5393698845          0.4674
C448       C    1.2496949238    0.5081489198    0.4916814757          0.4676
N449       N    1.2830942676    0.5004134924    0.4995175191         -0.5324
H450       H    1.2578125454    0.5261475724    0.4736362516          0.4676
H451       H    1.2318386669    0.4756142095    0.5242353861          0.4675
N452       N    1.3141628328    0.4990818881    0.5009427038         -0.5323
C453       C    1.3415173955    0.4988421301    0.5012795624         -0.5322
C454       C    1.3755649934    0.5000000000    0.5000000000         -0.5322
C419       C    0.6244350066    0.5000000000    0.0000000000          0.4675
C420       C    0.6441054114    0.5233982600    0.0128743231          0.4676
C421       C    0.6766685472    0.5206081836    0.0112719171          0.4675
C422       C    0.6913772004    0.4952257100   -0.0027624195          0.4675
C423       C    0.6718522203    0.4723906986   -0.0153271070          0.4675
C424       C    0.6394013307    0.4747325073   -0.0139995372          0.4675
C425       C    0.7240415285    0.4920589445   -0.0045172207          0.4675
H426       H    0.6915025531    0.5398331393    0.0218566139          0.4676
Cl427     Cl    0.6313123200    0.5585620974    0.0323146601         -0.5324
H428       H    0.6249644145    0.4553620791   -0.0246647334          0.4675
H429       H    0.6823548009    0.4511897532   -0.0270576356          0.4674
C430       C    0.7496949238    0.5102552208    0.0055166282          0.4676
N431       N    0.7830942676    0.5005783750    0.0002631467         -0.5324
H432       H    0.7578125454    0.5325909758    0.0177924440          0.4676
H433       H    0.7318386669    0.4699431052   -0.0166914287          0.4675
N434       N    0.8141628328    0.4988393109   -0.0006200168         -0.5323
C435       C    0.8415173955    0.4984490979   -0.0007567333         -0.5322
C436       C    0.8755649934    0.5000000000    0.0000000000         -0.5322
C401       C    1.1244350066    0.5000000000    0.0000000000          0.4675
C402       C    1.1441054114    0.4739423433    0.0058502389          0.4676
C403       C    1.1766685472    0.4770940623    0.0052030149          0.4675
C404       C    1.1913772004    0.5054066539   -0.0010921995          0.4675
C405       C    1.1718522203    0.5308372286   -0.0068014016          0.4675
C406       C    1.1394013307    0.5282033949   -0.0062451377          0.4675
C407       C    1.2240415285    0.5089415368   -0.0018747172          0.4675
H408       H    1.1915025531    0.4556796460    0.0100048380          0.4676
Cl409     Cl    1.1313123200    0.4347207355    0.0145730618         -0.5324
H410       H    1.1249644145    0.5497801202   -0.0110829909          0.4675
H411       H    1.1823548009    0.5544910257   -0.0120533792          0.4674
C412       C    1.2496949238    0.4886626786    0.0026585492          0.4676
N413       N    1.2830942676    0.4993923735    0.0001858867         -0.5324
H414       H    1.2578125454    0.4637974880    0.0082535384          0.4676
H415       H    1.2318386669    0.5335746619   -0.0074001890          0.4675
N416       N    1.3141628328    0.5012802760   -0.0003041599         -0.5323
C417       C    1.3415173955    0.5016631890   -0.0004601575         -0.5322
C418       C    1.3755649934    0.5000000000    0.0000000000         -0.5322
C383       C    1.0000000000    0.5000000000   -0.3755649934          0.4675
C384       C    1.0267063048    0.5000068838   -0.3558945886          0.4676
C385       C    1.0234893711    0.4999471484   -0.3233314528          0.4675
C386       C    0.9944854396    0.4998798778   -0.3086227996          0.4675
C387       C    0.9684218813    0.4998729160   -0.3281477797          0.4675
C388       C    0.9711135892    0.4999078198   -0.3605986693          0.4675
C389       C    0.9908649986    0.4998681108   -0.2759584715          0.4675
H390       H    1.0454355461    0.4999586164   -0.3084974469          0.4676
Cl391     Cl    1.0668860739    0.5000980998   -0.3686876800         -0.5324
H392       H    0.9490011547    0.4998959088   -0.3750355855          0.4675
H393       H    0.9441921193    0.4998095254   -0.3176451991          0.4674
C394       C    1.0116443633    0.4998925584   -0.2503050762          0.4676
N395       N    1.0006336008    0.4999518972   -0.2169057324         -0.5324
H396       H    1.0371312536    0.4998869585   -0.2421874546          0.4676
H397       H    0.9656197701    0.4998567800   -0.2681613331          0.4675
N398       N    0.9986841867    0.5000159781   -0.1858371672         -0.5323
C399       C    0.9982763838    0.5000842013   -0.1584826045         -0.5322
C400       C    1.0000000000    0.5000000000   -0.1244350066         -0.5322
C365       C    1.0000000000    0.5000000000    0.1244350066          0.4675
C366       C    0.9732936952    0.4999931162    0.1441054114          0.4676
C367       C    0.9765106289    0.5000528516    0.1766685472          0.4675
C368       C    1.0055145604    0.5001201222    0.1913772004          0.4675
C369       C    1.0315781187    0.5001270840    0.1718522203          0.4675
C370       C    1.0288864108    0.5000921802    0.1394013307          0.4675
C371       C    1.0091350014    0.5001318892    0.2240415285          0.4675
H372       H    0.9545644539    0.5000413836    0.1915025531          0.4676
Cl373     Cl    0.9331139261    0.4999019002    0.1313123200         -0.5324
H374       H    1.0509988453    0.5001040912    0.1249644145          0.4675
H375       H    1.0558078807    0.5001904746    0.1823548009          0.4674
C376       C    0.9883556367    0.5001074416    0.2496949238          0.4676
N377       N    0.9993663992    0.5000481028    0.2830942676         -0.5324
H378       H    0.9628687464    0.5001130415    0.2578125454          0.4676
H379       H    1.0343802299    0.5001432200    0.2318386669          0.4675
N380       N    1.0013158133    0.4999840219    0.3141628328         -0.5323
C381       C    1.0017236162    0.4999157987    0.3415173955         -0.5322
C382       C    1.0000000000    0.5000000000    0.3755649934         -0.5322
C347       C    1.0000000000   -0.1244350066    0.5000000000          0.4675
C348       C    1.0267063048   -0.1441054114    0.5000068838          0.4676
C349       C    1.0234893711   -0.1766685472    0.4999471484          0.4675
C350       C    0.9944854396   -0.1913772004    0.4998798778          0.4675
C351       C    0.9684218813   -0.1718522203    0.4998729160          0.4675
C352       C    0.9711135892   -0.1394013307    0.4999078198          0.4675
C353       C    0.9908649986   -0.2240415285    0.4998681108          0.4675
H354       H    1.0454355461   -0.1915025531    0.4999586164          0.4676
Cl355     Cl    1.0668860739   -0.1313123200    0.5000980998         -0.5324
H356       H    0.9490011547   -0.1249644145    0.4998959088          0.4675
H357       H    0.9441921193   -0.1823548009    0.4998095254          0.4674
C358       C    1.0116443633   -0.2496949238    0.4998925584          0.4676
N359       N    1.0006336008   -0.2830942676    0.4999518972         -0.5324
H360       H    1.0371312536   -0.2578125454    0.4998869585          0.4676
H361       H    0.9656197701   -0.2318386669    0.4998567800          0.4675
N362       N    0.9986841867   -0.3141628328    0.5000159781         -0.5323
C363       C    0.9982763838   -0.3415173955    0.5000842013         -0.5322
C364       C    1.0000000000   -0.3755649934    0.5000000000         -0.5322
C329       C    1.0000000000    0.1244350066    0.5000000000          0.4675
C330       C    0.9999818216    0.1441054114    0.5267062995          0.4676
C331       C    0.9999251051    0.1766685472    0.5234893112          0.4675
C332       C    0.9998850530    0.1913772004    0.4944853293          0.4675
C333       C    0.9999025502    0.1718522203    0.4684217759          0.4675
C334       C    0.9999349280    0.1394013307    0.4711135154          0.4675
C335       C    0.9998766835    0.2240415285    0.4908648789          0.4675
H336       H    0.9999159779    0.1915025531    0.5454354872          0.4676
Cl337     Cl    1.0000353313    0.1313123200    0.5668861365         -0.5324
H338       H    0.9999437681    0.1249644145    0.4490010795          0.4675
H339       H    0.9998618977    0.1823548009    0.4441919651          0.4674
C340       C    0.9998816310    0.2496949238    0.5116442574          0.4676
N341       N    0.9999513026    0.2830942676    0.5006335553         -0.5324
H342       H    0.9998521131    0.2578125454    0.5371311311          0.4676
H343       H    0.9998890438    0.2318386669    0.4656196508          0.4675
N344       N    1.0000172129    0.3141628328    0.4986842023         -0.5323
C345       C    1.0000858188    0.3415173955    0.4982764636         -0.5322
C346       C    1.0000000000    0.3755649934    0.5000000000         -0.5322
C311       C    0.6244350066   -0.0000000000    0.5000000000          0.4675
C312       C    0.6441054114    0.0242453629    0.5111977295          0.4676
C313       C    0.6766685472    0.0213495494    0.5097954117          0.4675
C314       C    0.6913772004   -0.0049566603    0.4975800156          0.4675
C315       C    0.6718522203   -0.0286184025    0.4866515631          0.4675
C316       C    0.6394013307   -0.0261890671    0.4878112349          0.4675
C317       C    0.7240415285   -0.0082389436    0.4960521584          0.4675
H318       H    0.6915025531    0.0412709853    0.5190025349          0.4676
Cl319     Cl    0.6313123200    0.0606887477    0.5281181864         -0.5324
H320       H    0.6249644145   -0.0462612742    0.4785340371          0.4675
H321       H    0.6823548009   -0.0505914848    0.4764403417          0.4674
C322       C    0.7496949238    0.0106176364    0.5047821060          0.4676
N323       N    0.7830942676    0.0005954418    0.5002218398         -0.5324
H324       H    0.7578125454    0.0337610514    0.5154574958          0.4676
H325       H    0.7318386669   -0.0311558445    0.4854626663          0.4675
N326       N    0.8141628328   -0.0012014011    0.4994631059         -0.5323
C327       C    0.8415173955   -0.0016002592    0.4993541570         -0.5322
C328       C    0.8755649934   -0.0000000000    0.5000000000         -0.5322
C293       C    1.3755649934   -0.0000000000    0.5000000000          0.4675
C294       C    1.3558945886    0.0214177774    0.5159532309          0.4676
C295       C    1.3233314528    0.0188026781    0.5140788012          0.4675
C296       C    1.3086227996   -0.0044934687    0.4968010086          0.4675
C297       C    1.3281477797   -0.0253959253    0.4812319232          0.4675
C298       C    1.3605986693   -0.0232168014    0.4828124067          0.4675
C299       C    1.2759584715   -0.0074034441    0.4946469953          0.4675
H300       H    1.3084974469    0.0364064249    0.5271838699          0.4676
Cl301     Cl    1.3686876800    0.0536892493    0.5398901117         -0.5324
H302       H    1.3750355855   -0.0409541233    0.4696083425          0.4675
H303       H    1.3176451991   -0.0448617264    0.4668038957          0.4674
C304       C    1.2503050762    0.0092724864    0.5070444117          0.4676
N305       N    1.2169057324    0.0004792895    0.5004171874         -0.5324
H306       H    1.2421874546    0.0297050524    0.5222789729          0.4676
H307       H    1.2681613331   -0.0276523580    0.4795704181          0.4675
N308       N    1.1858371672   -0.0010454982    0.4992009046         -0.5323
C309       C    1.1584826045   -0.0013317151    0.4989025131         -0.5322
C310       C    1.1244350066   -0.0000000000    0.5000000000         -0.5322
C275       C   -0.0000000000   -0.3755649934    0.0000000000          0.4675
C276       C   -0.0213751098   -0.3558945886   -0.0160103544          0.4676
C277       C   -0.0187650240   -0.3233314528   -0.0141289498          0.4675
C278       C    0.0044849121   -0.3086227996    0.0032109765          0.4675
C279       C    0.0253457285   -0.3281477797    0.0188358111          0.4675
C280       C    0.0231708318   -0.3605986693    0.0172495154          0.4675
C281       C    0.0073891265   -0.2759584715    0.0053727511          0.4675
H282       H   -0.0363337207   -0.3084974469   -0.0272809695          0.4676
Cl283     Cl   -0.0535825608   -0.3686876800   -0.0400333072         -0.5324
H284       H    0.0408728388   -0.3750355855    0.0305008870          0.4675
H285       H    0.0447729407   -0.3176451991    0.0333157562          0.4674
C286       C   -0.0092536465   -0.2503050762   -0.0070691419          0.4676
N287       N   -0.0004781740   -0.2169057324   -0.0004184655         -0.5324
H288       H   -0.0296454669   -0.2421874546   -0.0223581990          0.4676
H289       H    0.0275977173   -0.2681613331    0.0205033344          0.4675
N290       N    0.0010433611   -0.1858371672    0.0008018838         -0.5323
C291       C    0.0013287803   -0.1584826045    0.0011010383         -0.5322
C292       C    0.0000000000   -0.1244350066    0.0000000000         -0.5322
C257       C    0.0000000000    0.1244350066    0.0000000000          0.4675
C258       C    0.0260902945    0.1441054114   -0.0057029202          0.4676
C259       C    0.0229601270    0.1766685472   -0.0049584187          0.4675
C260       C   -0.0053620433    0.1913772004    0.0012935601          0.4675
C261       C   -0.0308243649    0.1718522203    0.0068594649          0.4675
C262       C   -0.0282020409    0.1394013307    0.0062512492          0.4675
C263       C   -0.0088966640    0.2240415285    0.0020772611          0.4675
H264       H    0.0443988498    0.1915025531   -0.0096505282          0.4676
Cl265     Cl    0.0653260264    0.1313123200   -0.0143619907         -0.5324
H266       H   -0.0498031029    0.1249644145    0.0109792531          0.4675
H267       H   -0.0544830523    0.1823548009    0.0120893691          0.4674
C268       C    0.0113993297    0.2496949238   -0.0023786601          0.4676
N269       N    0.0006292808    0.2830942676   -0.0000881449         -0.5324
H270       H    0.0363009323    0.2578125454   -0.0078092945          0.4676
H271       H   -0.0335585547    0.2318386669    0.0074728927          0.4675
N272       N   -0.0012889429    0.3141628328    0.0002650398         -0.5323
C273       C   -0.0017019132    0.3415173955    0.0002853668         -0.5322
C274       C    0.0000000000    0.3755649934    0.0000000000         -0.5322
C239       C   -0.1244350066   -0.0000000000    0.0000000000          0.4675
C240       C   -0.1441054114   -0.0175714203    0.0201114881          0.4676
C241       C   -0.1766685472   -0.0154991879    0.0176501706          0.4675
C242       C   -0.1913772004    0.0035389377   -0.0042309250          0.4675
C243       C   -0.1718522203    0.0206872793   -0.0238585458          0.4675
C244       C   -0.1394013307    0.0189420258   -0.0218090093          0.4675
C245       C   -0.2240415285    0.0059128510   -0.0069644696          0.4675
H246       H   -0.1915025531   -0.0299343044    0.0341808130          0.4676
Cl247     Cl   -0.1313123200   -0.0439468317    0.0504225395         -0.5372
H248       H   -0.1249644145    0.0334862314   -0.0384651188          0.4675
H249       H   -0.1823548009    0.0365862335   -0.0421426548          0.4674
C250       C   -0.2496949238   -0.0077445635    0.0086962334          0.4676
N251       N   -0.2830942676   -0.0004532170    0.0004453742         -0.5324
H252       H   -0.2578125454   -0.0245228320    0.0278814182          0.4676
H253       H   -0.2318386669    0.0225193241   -0.0259788522          0.4675
N254       N   -0.3141628328    0.0008780248   -0.0009801491         -0.5323
C255       C   -0.3415173955    0.0011977827   -0.0012422798         -0.5322
C256       C   -0.3755649934   -0.0000000000    0.0000000000         -0.5322
C221       C    0.1244350066   -0.0000000000    0.0000000000          0.4675
C222       C    0.1441054114    0.0250390197   -0.0092883936          0.4676
C223       C    0.1766685472    0.0220024187   -0.0082247746          0.4675
C224       C    0.1913772004   -0.0052115968    0.0018066723          0.4675
C225       C    0.1718522203   -0.0296480817    0.0108712917          0.4675
C226       C    0.1394013307   -0.0271125118    0.0099671928          0.4675
C227       C    0.2240415285   -0.0086097828    0.0030556972          0.4675
H228       H    0.1915025531    0.0425805079   -0.0158521578          0.4676
Cl229     Cl    0.1313123200    0.0627384923   -0.0231870243         -0.5324
H230       H    0.1249644145   -0.0478466201    0.0176520255          0.4675
H231       H    0.1823548009   -0.0523850590    0.0192447767          0.4674
C232       C    0.2496949238    0.0108789626   -0.0041534218          0.4676
N233       N    0.2830942676    0.0005772463   -0.0002656135         -0.5324
H234       H    0.2578125454    0.0347704608   -0.0130291144          0.4676
H235       H    0.2318386669   -0.0322806206    0.0118314096          0.4675
N236       N    0.3141628328   -0.0012279875    0.0004729340         -0.5323
C237       C    0.3415173955   -0.0015865501    0.0006788235         -0.5322
C238       C    0.3755649934   -0.0000000000    0.0000000000         -0.5322
C203       C    0.0000000000    0.0000000000   -0.1244350066          0.4675
C204       C    0.0113359083    0.0241810659   -0.1441054114          0.4676
C205       C    0.0099170878    0.0212933022   -0.1766685472          0.4675
C206       C   -0.0024482312   -0.0049427695   -0.1913772004          0.4675
C207       C   -0.0135115364   -0.0285417609   -0.1718522203          0.4675
C208       C   -0.0123380199   -0.0261190829   -0.1394013307          0.4675
C209       C   -0.0039947945   -0.0082162803   -0.2240415285          0.4675
H210       H    0.0192377469    0.0411618713   -0.1915025531          0.4676
Cl211     Cl    0.0284640614    0.0605272973   -0.1313123200         -0.5324
H212       H   -0.0217296129   -0.0461380210   -0.1249644145          0.4675
H213       H   -0.0238479854   -0.0504562129   -0.1823548009          0.4674
C214       C    0.0048426199    0.0105901734   -0.2496949238          0.4676
N215       N    0.0002252342    0.0005941661   -0.2830942676         -0.5324
H216       H    0.0156499085    0.0336722903   -0.2578125454          0.4676
H217       H   -0.0147148942   -0.0310723769   -0.2318386669          0.4675
N218       N   -0.0005437414   -0.0011983177   -0.3141628328         -0.5323
C219       C   -0.0006549647   -0.0015965475   -0.3415173955         -0.5322
C220       C    0.0000000000    0.0000000000   -0.3755649934         -0.5322
C185       C   -0.0000000000   -0.0000000000    0.1244350066          0.4675
C186       C    0.0264992820   -0.0033188578    0.1441054114          0.4676
C187       C    0.0232999499   -0.0029775293    0.1766685472          0.4675
C188       C   -0.0054865941    0.0005675311    0.1913772004          0.4675
C189       C   -0.0313481423    0.0038062715    0.1718522203          0.4675
C190       C   -0.0286730400    0.0035057100    0.1394013307          0.4675
C191       C   -0.0090803191    0.0010067027    0.2240415285          0.4675
H192       H    0.0450767255   -0.0056990682    0.1915025531          0.4676
Cl193     Cl    0.0663776535   -0.0082318661    0.1313123200         -0.5324
H194       H   -0.0506148361    0.0062475134    0.1249644145          0.4675
H195       H   -0.0553971955    0.0067606629    0.1823548009          0.4674
C196       C    0.0115403449   -0.0015566568    0.2496949238          0.4676
N197       N    0.0006226787   -0.0001266296    0.2830942676         -0.5324
H198       H    0.0368281496   -0.0047360497    0.2578125454          0.4676
H199       H   -0.0341304515    0.0041392029    0.2318386669          0.4675
N200       N   -0.0013035814    0.0001797095    0.3141628328         -0.5323
C201       C   -0.0016997142    0.0002981847    0.3415173955         -0.5322
C202       C   -0.0000000000    0.0000000000    0.3755649934         -0.5322
loop_
_geom_bond_atom_site_label_1
_geom_bond_atom_site_label_2
_geom_bond_distance
_geom_bond_site_symmetry_2
_ccdc_geom_bond_type
Zn1          O5 1.942       .   S
Zn1          O6 1.922       .   S
Zn1         O10 1.922       .   S
Zn1         O17 1.922       .   S
Zn2          O5 1.942       .   S
Zn2          O7 1.922       .   S
Zn2          O9 1.922       .   S
Zn2         O13 1.922       .   S
Zn3          O5 1.942       .   S
Zn3          O8 1.922       .   S
Zn3         O11 1.922       .   S
Zn3         O14 1.922       .   S
Zn4          O5 1.942       .   S
Zn4         O12 1.922       .   S
Zn4         O15 1.922       .   S
Zn4         O16 1.922       .   S
O6          C18 1.304       .   A
O7          C19 1.304       .   A
O8          C20 1.304       .   A
O9          C18 1.304       .   A
O10         C20 1.304       .   A
O11         C19 1.304       .   A
O12         C21 1.304       .   A
O13         C22 1.304       .   A
O14         C21 1.304       .   A
O15         C22 1.304       .   A
O16         C23 1.304       .   A
O17         C23 1.304       .   A
C18        C185 1.540       .   S
C19        C221 1.540       .   S
C20        C292 1.540       .   S
C21        C203 1.540       .   S
C22        C257 1.540       .   S
C23        C239 1.540       .   S
Zn24        O28 1.942       .   S
Zn24        O29 1.922       .   S
Zn24        O33 1.922       .   S
Zn24        O40 1.922       .   S
Zn25        O28 1.942       .   S
Zn25        O30 1.922       .   S
Zn25        O32 1.922       .   S
Zn25        O36 1.922       .   S
Zn26        O28 1.942       .   S
Zn26        O31 1.922       .   S
Zn26        O34 1.922       .   S
Zn26        O37 1.922       .   S
Zn27        O28 1.942       .   S
Zn27        O35 1.922       .   S
Zn27        O38 1.922       .   S
Zn27        O39 1.922       .   S
O29         C41 1.304       .   A
O30         C42 1.304       .   A
O31         C43 1.304       .   A
O32         C41 1.304       .   A
O33         C43 1.304       .   A
O34         C42 1.304       .   A
O35         C44 1.304       .   A
O36         C45 1.304       .   A
O37         C44 1.304       .   A
O38         C45 1.304       .   A
O39         C46 1.304       .   A
O40         C46 1.304       .   A
C41        C202 1.540   1_655   S
C42        C310 1.540       .   S
C43        C329 1.540       .   S
C44        C220 1.540   1_656   S
C45        C347 1.540       .   S
C46        C328 1.540       .   S
Zn47        O51 1.942       .   S
Zn47        O52 1.922       .   S
Zn47        O56 1.922       .   S
Zn47        O63 1.922       .   S
Zn48        O51 1.942       .   S
Zn48        O53 1.922       .   S
Zn48        O55 1.922       .   S
Zn48        O59 1.922       .   S
Zn49        O51 1.942       .   S
Zn49        O54 1.922       .   S
Zn49        O57 1.922       .   S
Zn49        O60 1.922       .   S
Zn50        O51 1.942       .   S
Zn50        O58 1.922       .   S
Zn50        O61 1.922       .   S
Zn50        O62 1.922       .   S
O52         C64 1.304       .   A
O53         C65 1.304       .   A
O54         C66 1.304       .   A
O55         C64 1.304       .   A
O56         C66 1.304       .   A
O57         C65 1.304       .   A
O58         C67 1.304       .   A
O59         C68 1.304       .   A
O60         C67 1.304       .   A
O61         C68 1.304       .   A
O62         C69 1.304       .   A
O63         C69 1.304       .   A
C64        C274 1.540   1_655   S
C65        C401 1.540       .   S
C66        C400 1.540       .   S
C67        C275 1.540   1_665   S
C68        C365 1.540       .   S
C69        C436 1.540       .   S
Zn70        O74 1.942       .   S
Zn70        O75 1.922       .   S
Zn70        O79 1.922       .   S
Zn70        O86 1.922       .   S
Zn71        O74 1.942       .   S
Zn71        O76 1.922       .   S
Zn71        O78 1.922       .   S
Zn71        O82 1.922       .   S
Zn72        O74 1.942       .   S
Zn72        O77 1.922       .   S
Zn72        O80 1.922       .   S
Zn72        O83 1.922       .   S
Zn73        O74 1.942       .   S
Zn73        O81 1.922       .   S
Zn73        O84 1.922       .   S
Zn73        O85 1.922       .   S
O75         C87 1.304       .   A
O76         C88 1.304       .   A
O77         C89 1.304       .   A
O78         C87 1.304       .   A
O79         C89 1.304       .   A
O80         C88 1.304       .   A
O81         C90 1.304       .   A
O82         C91 1.304       .   A
O83         C90 1.304       .   A
O84         C91 1.304       .   A
O85         C92 1.304       .   A
O86         C92 1.304       .   A
C87        C346 1.540       .   S
C88        C455 1.540       .   S
C89        C383 1.540   1_556   S
C90        C364 1.540   1_565   S
C91        C382 1.540       .   S
C92        C437 1.540       .   S
Zn93        O97 1.942       .   S
Zn93        O98 1.922       .   S
Zn93       O102 1.922       .   S
Zn93       O109 1.922       .   S
Zn94        O97 1.942       .   S
Zn94        O99 1.922       .   S
Zn94       O101 1.922       .   S
Zn94       O105 1.922       .   S
Zn95        O97 1.942       .   S
Zn95       O100 1.922       .   S
Zn95       O103 1.922       .   S
Zn95       O106 1.922       .   S
Zn96        O97 1.942       .   S
Zn96       O104 1.922       .   S
Zn96       O107 1.922       .   S
Zn96       O108 1.922       .   S
O98        C110 1.304       .   A
O99        C111 1.304       .   A
O100       C112 1.304       .   A
O101       C110 1.304       .   A
O102       C112 1.304       .   A
O103       C111 1.304       .   A
O104       C113 1.304       .   A
O105       C114 1.304       .   A
O106       C113 1.304       .   A
O107       C114 1.304       .   A
O108       C115 1.304       .   A
O109       C115 1.304       .   A
C110       C238 1.540   1_565   S
C111       C490 1.540       .   S
C112       C527 1.540       .   S
C113       C256 1.540   1_665   S
C114       C509 1.540       .   S
C115       C491 1.540       .   S
Zn116      O120 1.942       .   S
Zn116      O121 1.922       .   S
Zn116      O125 1.922       .   S
Zn116      O132 1.922       .   S
Zn117      O120 1.942       .   S
Zn117      O122 1.922       .   S
Zn117      O124 1.922       .   S
Zn117      O128 1.922       .   S
Zn118      O120 1.942       .   S
Zn118      O123 1.922       .   S
Zn118      O126 1.922       .   S
Zn118      O129 1.922       .   S
Zn119      O120 1.942       .   S
Zn119      O127 1.922       .   S
Zn119      O130 1.922       .   S
Zn119      O131 1.922       .   S
O121       C133 1.304       .   A
O122       C134 1.304       .   A
O123       C135 1.304       .   A
O124       C133 1.304       .   A
O125       C135 1.304       .   A
O126       C134 1.304       .   A
O127       C136 1.304       .   A
O128       C137 1.304       .   A
O129       C136 1.304       .   A
O130       C137 1.304       .   A
O131       C138 1.304       .   A
O132       C138 1.304       .   A
C133       C293 1.540   1_465   S
C134       C473 1.540       .   S
C135       C545 1.540       .   S
C136       C311 1.540   1_565   S
C137       C563 1.540       .   S
C138       C508 1.540   1_556   S
Zn139      O143 1.942       .   S
Zn139      O144 1.922       .   S
Zn139      O148 1.922       .   S
Zn139      O155 1.922       .   S
Zn140      O143 1.942       .   S
Zn140      O145 1.922       .   S
Zn140      O147 1.922       .   S
Zn140      O151 1.922       .   S
Zn141      O143 1.942       .   S
Zn141      O146 1.922       .   S
Zn141      O149 1.922       .   S
Zn141      O152 1.922       .   S
Zn142      O143 1.942       .   S
Zn142      O150 1.922       .   S
Zn142      O153 1.922       .   S
Zn142      O154 1.922       .   S
O144       C156 1.304       .   A
O145       C157 1.304       .   A
O146       C158 1.304       .   A
O147       C156 1.304       .   A
O148       C158 1.304       .   A
O149       C157 1.304       .   A
O150       C159 1.304       .   A
O151       C160 1.304       .   A
O152       C159 1.304       .   A
O153       C160 1.304       .   A
O154       C161 1.304       .   A
O155       C161 1.304       .   A
C156       C418 1.540   1_455   S
C157       C581 1.540       .   S
C158       C526 1.540   1_545   S
C159       C419 1.540       .   S
C160       C544 1.540       .   S
C161       C599 1.540       .   S
Zn162      O166 1.942       .   S
Zn162      O167 1.922       .   S
Zn162      O171 1.922       .   S
Zn162      O178 1.922       .   S
Zn163      O166 1.942       .   S
Zn163      O168 1.922       .   S
Zn163      O170 1.922       .   S
Zn163      O174 1.922       .   S
Zn164      O166 1.942       .   S
Zn164      O169 1.922       .   S
Zn164      O172 1.922       .   S
Zn164      O175 1.922       .   S
Zn165      O166 1.942       .   S
Zn165      O173 1.922       .   S
Zn165      O176 1.922       .   S
Zn165      O177 1.922       .   S
O167       C179 1.304       .   A
O168       C180 1.304       .   A
O169       C181 1.304       .   A
O170       C179 1.304       .   A
O171       C181 1.304       .   A
O172       C180 1.304       .   A
O173       C182 1.304       .   A
O174       C183 1.304       .   A
O175       C182 1.304       .   A
O176       C183 1.304       .   A
O177       C184 1.304       .   A
O178       C184 1.304       .   A
C179       C454 1.540   1_455   S
C180       C562 1.540   1_545   S
C181       C598 1.540       .   S
C182       C472 1.540       .   S
C183       C616 1.540   1_556   S
C184       C580 1.540       .   S
C599       C600 0.028       .   A
C599       C604 0.028       .   A
C600       C601 0.028       .   A
C600      Cl607 0.036       .   A
C601       C602 0.028       .   A
C601       H606 0.023       .   A
C602       C603 0.028       .   A
C602       C605 0.028       .   A
C603       C604 0.028       .   A
C603       H609 0.022       .   A
C604       H608 0.022       .   A
C605       C610 0.028       .   A
C605       H613 0.023       .   A
C610       N611 0.030       .   A
C610       H612 0.023       .   A
N611       N614 0.027       .   A
N614       C615 0.023       .   A
C615       C616 0.029       .   A
C581       C582 0.028       .   A
C581       C586 0.028       .   A
C582       C583 0.028       .   A
C582      Cl589 0.036       .   A
C583       C584 0.028       .   A
C583       H588 0.023       .   A
C584       C585 0.028       .   A
C584       C587 0.028       .   A
C585       C586 0.028       .   A
C585       H591 0.022       .   A
C586       H590 0.022       .   A
C587       C592 0.028       .   A
C587       H595 0.023       .   A
C592       N593 0.030       .   A
C592       H594 0.023       .   A
N593       N596 0.027       .   A
N596       C597 0.023       .   A
C597       C598 0.029       .   A
C563       C564 0.028       .   A
C563       C568 0.028       .   A
C564       C565 0.028       .   A
C564      Cl571 0.036       .   A
C565       C566 0.028       .   A
C565       H570 0.023       .   A
C566       C567 0.028       .   A
C566       C569 0.028       .   A
C567       C568 0.028       .   A
C567       H573 0.022       .   A
C568       H572 0.022       .   A
C569       C574 0.028       .   A
C569       H577 0.023       .   A
C574       N575 0.030       .   A
C574       H576 0.023       .   A
N575       N578 0.027       .   A
N578       C579 0.023       .   A
C579       C580 0.029       .   A
C545       C546 0.028       .   A
C545       C550 0.028       .   A
C546       C547 0.028       .   A
C546      Cl553 0.036       .   A
C547       C548 0.028       .   A
C547       H552 0.023       .   A
C548       C549 0.028       .   A
C548       C551 0.028       .   A
C549       C550 0.028       .   A
C549       H555 0.022       .   A
C550       H554 0.022       .   A
C551       C556 0.028       .   A
C551       H559 0.023       .   A
C556       N557 0.030       .   A
C556       H558 0.023       .   A
N557       N560 0.027       .   A
N560       C561 0.023       .   A
C561       C562 0.029       .   A
C527       C528 0.028       .   A
C527       C532 0.028       .   A
C528       C529 0.028       .   A
C528      Cl535 0.036       .   A
C529       C530 0.028       .   A
C529       H534 0.023       .   A
C530       C531 0.028       .   A
C530       C533 0.028       .   A
C531       C532 0.028       .   A
C531       H537 0.022       .   A
C532       H536 0.022       .   A
C533       C538 0.028       .   A
C533       H541 0.023       .   A
C538       N539 0.030       .   A
C538       H540 0.023       .   A
N539       N542 0.027       .   A
N542       C543 0.023       .   A
C543       C544 0.029       .   A
C509       C510 0.028       .   A
C509       C514 0.028       .   A
C510       C511 0.028       .   A
C510      Cl517 0.036       .   A
C511       C512 0.028       .   A
C511       H516 0.023       .   A
C512       C513 0.028       .   A
C512       C515 0.028       .   A
C513       C514 0.028       .   A
C513       H519 0.022       .   A
C514       H518 0.022       .   A
C515       C520 0.028       .   A
C515       H523 0.023       .   A
C520       N521 0.030       .   A
C520       H522 0.023       .   A
N521       N524 0.027       .   A
N524       C525 0.023       .   A
C525       C526 0.029       .   A
C491       C492 0.028       .   A
C491       C496 0.028       .   A
C492       C493 0.028       .   A
C492      Cl499 0.036       .   A
C493       C494 0.028       .   A
C493       H498 0.023       .   A
C494       C495 0.028       .   A
C494       C497 0.028       .   A
C495       C496 0.028       .   A
C495       H501 0.022       .   A
C496       H500 0.022       .   A
C497       C502 0.028       .   A
C497       H505 0.023       .   A
C502       N503 0.030       .   A
C502       H504 0.023       .   A
N503       N506 0.027       .   A
N506       C507 0.023       .   A
C507       C508 0.029       .   A
C473       C474 0.028       .   A
C473       C478 0.028       .   A
C474       C475 0.028       .   A
C474      Cl481 0.036       .   A
C475       C476 0.028       .   A
C475       H480 0.023       .   A
C476       C477 0.028       .   A
C476       C479 0.028       .   A
C477       C478 0.028       .   A
C477       H483 0.022       .   A
C478       H482 0.022       .   A
C479       C484 0.028       .   A
C479       H487 0.023       .   A
C484       N485 0.030       .   A
C484       H486 0.023       .   A
N485       N488 0.027       .   A
N488       C489 0.023       .   A
C489       C490 0.029       .   A
C455       C456 0.028       .   A
C455       C460 0.028       .   A
C456       C457 0.028       .   A
C456      Cl463 0.036       .   A
C457       C458 0.028       .   A
C457       H462 0.023       .   A
C458       C459 0.028       .   A
C458       C461 0.028       .   A
C459       C460 0.028       .   A
C459       H465 0.022       .   A
C460       H464 0.022       .   A
C461       C466 0.028       .   A
C461       H469 0.023       .   A
C466       N467 0.030       .   A
C466       H468 0.023       .   A
N467       N470 0.027       .   A
N470       C471 0.023       .   A
C471       C472 0.029       .   A
C437       C438 0.028       .   A
C437       C442 0.028       .   A
C438       C439 0.028       .   A
C438      Cl445 0.036       .   A
C439       C440 0.028       .   A
C439       H444 0.023       .   A
C440       C441 0.028       .   A
C440       C443 0.028       .   A
C441       C442 0.028       .   A
C441       H447 0.022       .   A
C442       H446 0.022       .   A
C443       C448 0.028       .   A
C443       H451 0.023       .   A
C448       N449 0.030       .   A
C448       H450 0.023       .   A
N449       N452 0.027       .   A
N452       C453 0.023       .   A
C453       C454 0.029       .   A
C419       C420 0.028       .   A
C419       C424 0.028       .   A
C420       C421 0.028       .   A
C420      Cl427 0.036       .   A
C421       C422 0.028       .   A
C421       H426 0.023       .   A
C422       C423 0.028       .   A
C422       C425 0.028       .   A
C423       C424 0.028       .   A
C423       H429 0.022       .   A
C424       H428 0.022       .   A
C425       C430 0.028       .   A
C425       H433 0.023       .   A
C430       N431 0.030       .   A
C430       H432 0.023       .   A
N431       N434 0.027       .   A
N434       C435 0.023       .   A
C435       C436 0.029       .   A
C401       C402 0.028       .   A
C401       C406 0.028       .   A
C402       C403 0.028       .   A
C402      Cl409 0.036       .   A
C403       C404 0.028       .   A
C403       H408 0.023       .   A
C404       C405 0.028       .   A
C404       C407 0.028       .   A
C405       C406 0.028       .   A
C405       H411 0.022       .   A
C406       H410 0.022       .   A
C407       C412 0.028       .   A
C407       H415 0.023       .   A
C412       N413 0.030       .   A
C412       H414 0.023       .   A
N413       N416 0.027       .   A
N416       C417 0.023       .   A
C417       C418 0.029       .   A
C383       C384 0.028       .   A
C383       C388 0.028       .   A
C384       C385 0.028       .   A
C384      Cl391 0.036       .   A
C385       C386 0.028       .   A
C385       H390 0.023       .   A
C386       C387 0.028       .   A
C386       C389 0.028       .   A
C387       C388 0.028       .   A
C387       H393 0.022       .   A
C388       H392 0.022       .   A
C389       C394 0.028       .   A
C389       H397 0.023       .   A
C394       N395 0.030       .   A
C394       H396 0.023       .   A
N395       N398 0.027       .   A
N398       C399 0.023       .   A
C399       C400 0.029       .   A
C365       C366 0.028       .   A
C365       C370 0.028       .   A
C366       C367 0.028       .   A
C366      Cl373 0.036       .   A
C367       C368 0.028       .   A
C367       H372 0.023       .   A
C368       C369 0.028       .   A
C368       C371 0.028       .   A
C369       C370 0.028       .   A
C369       H375 0.022       .   A
C370       H374 0.022       .   A
C371       C376 0.028       .   A
C371       H379 0.023       .   A
C376       N377 0.030       .   A
C376       H378 0.023       .   A
N377       N380 0.027       .   A
N380       C381 0.023       .   A
C381       C382 0.029       .   A
C347       C348 0.028       .   A
C347       C352 0.028       .   A
C348       C349 0.028       .   A
C348      Cl355 0.036       .   A
C349       C350 0.028       .   A
C349       H354 0.023       .   A
C350       C351 0.028       .   A
C350       C353 0.028       .   A
C351       C352 0.028       .   A
C351       H357 0.022       .   A
C352       H356 0.022       .   A
C353       C358 0.028       .   A
C353       H361 0.023       .   A
C358       N359 0.030       .   A
C358       H360 0.023       .   A
N359       N362 0.027       .   A
N362       C363 0.023       .   A
C363       C364 0.029       .   A
C329       C330 0.028       .   A
C329       C334 0.028       .   A
C330       C331 0.028       .   A
C330      Cl337 0.036       .   A
C331       C332 0.028       .   A
C331       H336 0.023       .   A
C332       C333 0.028       .   A
C332       C335 0.028       .   A
C333       C334 0.028       .   A
C333       H339 0.022       .   A
C334       H338 0.022       .   A
C335       C340 0.028       .   A
C335       H343 0.023       .   A
C340       N341 0.030       .   A
C340       H342 0.023       .   A
N341       N344 0.027       .   A
N344       C345 0.023       .   A
C345       C346 0.029       .   A
C311       C312 0.028       .   A
C311       C316 0.028       .   A
C312       C313 0.028       .   A
C312      Cl319 0.036       .   A
C313       C314 0.028       .   A
C313       H318 0.023       .   A
C314       C315 0.028       .   A
C314       C317 0.028       .   A
C315       C316 0.028       .   A
C315       H321 0.022       .   A
C316       H320 0.022       .   A
C317       C322 0.028       .   A
C317       H325 0.023       .   A
C322       N323 0.030       .   A
C322       H324 0.023       .   A
N323       N326 0.027       .   A
N326       C327 0.023       .   A
C327       C328 0.029       .   A
C293       C294 0.028       .   A
C293       C298 0.028       .   A
C294       C295 0.028       .   A
C294      Cl301 0.036       .   A
C295       C296 0.028       .   A
C295       H300 0.023       .   A
C296       C297 0.028       .   A
C296       C299 0.028       .   A
C297       C298 0.028       .   A
C297       H303 0.022       .   A
C298       H302 0.022       .   A
C299       C304 0.028       .   A
C299       H307 0.023       .   A
C304       N305 0.030       .   A
C304       H306 0.023       .   A
N305       N308 0.027       .   A
N308       C309 0.023       .   A
C309       C310 0.029       .   A
C275       C276 0.028       .   A
C275       C280 0.028       .   A
C276       C277 0.028       .   A
C276      Cl283 0.036       .   A
C277       C278 0.028       .   A
C277       H282 0.023       .   A
C278       C279 0.028       .   A
C278       C281 0.028       .   A
C279       C280 0.028       .   A
C279       H285 0.022       .   A
C280       H284 0.022       .   A
C281       C286 0.028       .   A
C281       H289 0.023       .   A
C286       N287 0.030       .   A
C286       H288 0.023       .   A
N287       N290 0.027       .   A
N290       C291 0.023       .   A
C291       C292 0.029       .   A
C257       C258 0.028       .   A
C257       C262 0.028       .   A
C258       C259 0.028       .   A
C258      Cl265 0.036       .   A
C259       C260 0.028       .   A
C259       H264 0.023       .   A
C260       C261 0.028       .   A
C260       C263 0.028       .   A
C261       C262 0.028       .   A
C261       H267 0.022       .   A
C262       H266 0.022       .   A
C263       C268 0.028       .   A
C263       H271 0.023       .   A
C268       N269 0.030       .   A
C268       H270 0.023       .   A
N269       N272 0.027       .   A
N272       C273 0.023       .   A
C273       C274 0.029       .   A
C239       C240 0.028       .   A
C239       C244 0.028       .   A
C240       C241 0.028       .   A
C240      Cl247 0.036       .   A
C241       C242 0.028       .   A
C241       H246 0.023       .   A
C242       C243 0.028       .   A
C242       C245 0.028       .   A
C243       C244 0.028       .   A
C243       H249 0.022       .   A
C244       H248 0.022       .   A
C245       C250 0.028       .   A
C245       H253 0.023       .   A
C250       N251 0.030       .   A
C250       H252 0.023       .   A
N251       N254 0.027       .   A
N254       C255 0.023       .   A
C255       C256 0.029       .   A
C221       C222 0.028       .   A
C221       C226 0.028       .   A
C222       C223 0.028       .   A
C222      Cl229 0.036       .   A
C223       C224 0.028       .   A
C223       H228 0.023       .   A
C224       C225 0.028       .   A
C224       C227 0.028       .   A
C225       C226 0.028       .   A
C225       H231 0.022       .   A
C226       H230 0.022       .   A
C227       C232 0.028       .   A
C227       H235 0.023       .   A
C232       N233 0.030       .   A
C232       H234 0.023       .   A
N233       N236 0.027       .   A
N236       C237 0.023       .   A
C237       C238 0.029       .   A
C203       C204 0.028       .   A
C203       C208 0.028       .   A
C204       C205 0.028       .   A
C204      Cl211 0.036       .   A
C205       C206 0.028       .   A
C205       H210 0.023       .   A
C206       C207 0.028       .   A
C206       C209 0.028       .   A
C207       C208 0.028       .   A
C207       H213 0.022       .   A
C208       H212 0.022       .   A
C209       C214 0.028       .   A
C209       H217 0.023       .   A
C214       N215 0.030       .   A
C214       H216 0.023       .   A
N215       N218 0.027       .   A
N218       C219 0.023       .   A
C219       C220 0.029       .   A
C185       C186 0.028       .   A
C185       C190 0.028       .   A
C186       C187 0.028       .   A
C186      Cl193 0.036       .   A
C187       C188 0.028       .   A
C187       H192 0.023       .   A
C188       C189 0.028       .   A
C188       C191 0.028       .   A
C189       C190 0.028       .   A
C189       H195 0.022       .   A
C190       H194 0.022       .   A
C191       C196 0.028       .   A
C191       H199 0.023       .   A
C196       N197 0.030       .   A
C196       H198 0.023       .   A
N197       N200 0.027       .   A
N200       C201 0.023       .   A
C201       C202 0.029       .   A
