data_pcu_v1-6c_Zn_1_Ch_1-59_fer_tobacco
_audit_creation_date              2021-04-07
_audit_creation_method            'tobacco_3.0'
_symmetry_space_group_name_H-M    'P1'
_symmetry_Int_Tables_number       1
_symmetry_cell_setting            triclinic
loop_
_symmetry_equiv_pos_as_xyz
  x,y,z
_cell_length_a                    45.583336489836014
_cell_length_b                    45.583336489836014
_cell_length_c                    45.583336489836014
_cell_angle_alpha                 90.0
_cell_angle_beta                  90.0
_cell_angle_gamma                 90.0
loop_
_atom_site_label
_atom_site_type_symbol
_atom_site_fract_x
_atom_site_fract_y
_atom_site_fract_z
_atom_site_charge
Zn1       Zn   -0.0245967076   -0.0245967076    0.0245967076          1.4972
Zn2       Zn    0.0245967076    0.0245967076    0.0245967076          1.4936
Zn3       Zn    0.0245967076   -0.0245967076   -0.0245967076          1.4911
Zn4       Zn   -0.0245967076    0.0245967076   -0.0245967076          1.4948
O5         O    0.0000000000    0.0000000000    0.0000000000         -2.3888
O6         O   -0.0180767812   -0.0180767812    0.0657389351         -1.2951
O7         O    0.0657389351    0.0180767812    0.0180767812         -1.2933
O8         O    0.0180767812   -0.0657389351   -0.0180767812         -1.2885
O9         O    0.0180767812    0.0180767812    0.0657389351         -1.2953
O10        O   -0.0180767812   -0.0657389351    0.0180767812         -1.2912
O11        O    0.0657389351   -0.0180767812   -0.0180767812         -1.2971
O12        O   -0.0180767812    0.0180767812   -0.0657389351          -1.291
O13        O    0.0180767812    0.0657389351    0.0180767812         -1.2986
O14        O    0.0180767812   -0.0180767812   -0.0657389351         -1.2925
O15        O   -0.0180767812    0.0657389351   -0.0180767812         -1.2971
O16        O   -0.0657389351    0.0180767812   -0.0180767812         -1.2962
O17        O   -0.0657389351   -0.0180767812    0.0180767812         -1.2941
C18        C   -0.0000000000   -0.0000000000    0.0785988977          0.2238
C19        C    0.0785988977   -0.0000000000   -0.0000000000          0.2287
C20        C   -0.0000000000   -0.0785988977    0.0000000000          0.2183
C21        C    0.0000000000    0.0000000000   -0.0785988977          0.2221
C22        C    0.0000000000    0.0785988977   -0.0000000000          0.2334
C23        C   -0.0785988977    0.0000000000    0.0000000000          0.2239
Zn24      Zn    0.9754032924   -0.0245967076    0.4754032924          1.4972
Zn25      Zn    1.0245967076   -0.0245967076    0.5245967076          1.4936
Zn26      Zn    1.0245967076    0.0245967076    0.4754032924          1.4911
Zn27      Zn    0.9754032924    0.0245967076    0.5245967076          1.4948
O28        O    1.0000000000    0.0000000000    0.5000000000         -2.3888
O29        O    0.9819232188   -0.0657389351    0.4819232188         -1.2951
O30        O    1.0657389351   -0.0180767812    0.5180767812         -1.2933
O31        O    1.0180767812    0.0180767812    0.4342610649         -1.2885
O32        O    1.0180767812   -0.0657389351    0.5180767812         -1.2953
O33        O    0.9819232188   -0.0180767812    0.4342610649         -1.2912
O34        O    1.0657389351    0.0180767812    0.4819232188         -1.2971
O35        O    0.9819232188    0.0657389351    0.5180767812          -1.291
O36        O    1.0180767812   -0.0180767812    0.5657389351         -1.2986
O37        O    1.0180767812    0.0657389351    0.4819232188         -1.2925
O38        O    0.9819232188    0.0180767812    0.5657389351         -1.2971
O39        O    0.9342610649    0.0180767812    0.5180767812         -1.2962
O40        O    0.9342610649   -0.0180767812    0.4819232188         -1.2941
C41        C    1.0000000000   -0.0785988977    0.5000000000          0.2238
C42        C    1.0785988977    0.0000000000    0.5000000000          0.2287
C43        C    1.0000000000    0.0000000000    0.4214011023          0.2183
C44        C    1.0000000000    0.0785988977    0.5000000000          0.2221
C45        C    1.0000000000    0.0000000000    0.5785988977          0.2334
C46        C    0.9214011023    0.0000000000    0.5000000000          0.2239
Zn47      Zn    0.9754032924    0.4754032924   -0.0245967076          1.4972
Zn48      Zn    1.0245967076    0.4754032924    0.0245967076          1.4936
Zn49      Zn    1.0245967076    0.5245967076   -0.0245967076          1.4911
Zn50      Zn    0.9754032924    0.5245967076    0.0245967076          1.4948
O51        O    1.0000000000    0.5000000000    0.0000000000         -2.3888
O52        O    0.9819232188    0.4342610649   -0.0180767812         -1.2951
O53        O    1.0657389351    0.4819232188    0.0180767812         -1.2933
O54        O    1.0180767812    0.5180767812   -0.0657389351         -1.2885
O55        O    1.0180767812    0.4342610649    0.0180767812         -1.2953
O56        O    0.9819232188    0.4819232188   -0.0657389351         -1.2912
O57        O    1.0657389351    0.5180767812   -0.0180767812         -1.2971
O58        O    0.9819232188    0.5657389351    0.0180767812          -1.291
O59        O    1.0180767812    0.4819232188    0.0657389351         -1.2986
O60        O    1.0180767812    0.5657389351   -0.0180767812         -1.2925
O61        O    0.9819232188    0.5180767812    0.0657389351         -1.2971
O62        O    0.9342610649    0.5180767812    0.0180767812         -1.2962
O63        O    0.9342610649    0.4819232188   -0.0180767812         -1.2941
C64        C    1.0000000000    0.4214011023    0.0000000000          0.2238
C65        C    1.0785988977    0.5000000000    0.0000000000          0.2287
C66        C    1.0000000000    0.5000000000   -0.0785988977          0.2183
C67        C    1.0000000000    0.5785988977    0.0000000000          0.2221
C68        C    1.0000000000    0.5000000000    0.0785988977          0.2334
C69        C    0.9214011023    0.5000000000    0.0000000000          0.2239
Zn70      Zn    0.9754032924    0.4754032924    0.4754032924          1.4972
Zn71      Zn    1.0245967076    0.4754032924    0.5245967076          1.4936
Zn72      Zn    1.0245967076    0.5245967076    0.4754032924          1.4911
Zn73      Zn    0.9754032924    0.5245967076    0.5245967076          1.4948
O74        O    1.0000000000    0.5000000000    0.5000000000         -2.3888
O75        O    0.9819232188    0.4342610649    0.4819232188         -1.2951
O76        O    1.0657389351    0.4819232188    0.5180767812         -1.2933
O77        O    1.0180767812    0.5180767812    0.4342610649         -1.2885
O78        O    1.0180767812    0.4342610649    0.5180767812         -1.2953
O79        O    0.9819232188    0.4819232188    0.4342610649         -1.2912
O80        O    1.0657389351    0.5180767812    0.4819232188         -1.2971
O81        O    0.9819232188    0.5657389351    0.5180767812          -1.291
O82        O    1.0180767812    0.4819232188    0.5657389351         -1.2986
O83        O    1.0180767812    0.5657389351    0.4819232188         -1.2925
O84        O    0.9819232188    0.5180767812    0.5657389351         -1.2971
O85        O    0.9342610649    0.5180767812    0.5180767812         -1.2962
O86        O    0.9342610649    0.4819232188    0.4819232188         -1.2941
C87        C    1.0000000000    0.4214011023    0.5000000000          0.2238
C88        C    1.0785988977    0.5000000000    0.5000000000          0.2287
C89        C    1.0000000000    0.5000000000    0.4214011023          0.2183
C90        C    1.0000000000    0.5785988977    0.5000000000          0.2221
C91        C    1.0000000000    0.5000000000    0.5785988977          0.2334
C92        C    0.9214011023    0.5000000000    0.5000000000          0.2239
Zn93      Zn    0.4754032924    0.9754032924   -0.0245967076          1.4972
Zn94      Zn    0.4754032924    1.0245967076    0.0245967076          1.4936
Zn95      Zn    0.5245967076    0.9754032924    0.0245967076          1.4911
Zn96      Zn    0.5245967076    1.0245967076   -0.0245967076          1.4948
O97        O    0.5000000000    1.0000000000    0.0000000000         -2.3888
O98        O    0.4342610649    0.9819232188   -0.0180767812         -1.2951
O99        O    0.4819232188    1.0180767812    0.0657389351         -1.2933
O100       O    0.5180767812    0.9342610649    0.0180767812         -1.2885
O101       O    0.4342610649    1.0180767812    0.0180767812         -1.2953
O102       O    0.4819232188    0.9342610649   -0.0180767812         -1.2912
O103       O    0.5180767812    0.9819232188    0.0657389351         -1.2971
O104       O    0.5657389351    1.0180767812   -0.0180767812          -1.291
O105       O    0.4819232188    1.0657389351    0.0180767812         -1.2986
O106       O    0.5657389351    0.9819232188    0.0180767812         -1.2925
O107       O    0.5180767812    1.0657389351   -0.0180767812         -1.2971
O108       O    0.5180767812    1.0180767812   -0.0657389351         -1.2962
O109       O    0.4819232188    0.9819232188   -0.0657389351         -1.2941
C110       C    0.4214011023    1.0000000000    0.0000000000          0.2238
C111       C    0.5000000000    1.0000000000    0.0785988977          0.2287
C112       C    0.5000000000    0.9214011023    0.0000000000          0.2183
C113       C    0.5785988977    1.0000000000    0.0000000000          0.2221
C114       C    0.5000000000    1.0785988977    0.0000000000          0.2334
C115       C    0.5000000000    1.0000000000   -0.0785988977          0.2239
Zn116     Zn    0.4754032924    1.0245967076    0.5245967076          1.4972
Zn117     Zn    0.4754032924    0.9754032924    0.4754032924          1.4936
Zn118     Zn    0.5245967076    1.0245967076    0.4754032924          1.4911
Zn119     Zn    0.5245967076    0.9754032924    0.5245967076          1.4948
O120       O    0.5000000000    1.0000000000    0.5000000000         -2.3888
O121       O    0.4342610649    1.0180767812    0.5180767812         -1.2951
O122       O    0.4819232188    0.9819232188    0.4342610649         -1.2933
O123       O    0.5180767812    1.0657389351    0.4819232188         -1.2885
O124       O    0.4342610649    0.9819232188    0.4819232188         -1.2953
O125       O    0.4819232188    1.0657389351    0.5180767812         -1.2912
O126       O    0.5180767812    1.0180767812    0.4342610649         -1.2971
O127       O    0.5657389351    0.9819232188    0.5180767812          -1.291
O128       O    0.4819232188    0.9342610649    0.4819232188         -1.2986
O129       O    0.5657389351    1.0180767812    0.4819232188         -1.2925
O130       O    0.5180767812    0.9342610649    0.5180767812         -1.2971
O131       O    0.5180767812    0.9819232188    0.5657389351         -1.2962
O132       O    0.4819232188    1.0180767812    0.5657389351         -1.2941
C133       C    0.4214011023    1.0000000000    0.5000000000          0.2238
C134       C    0.5000000000    1.0000000000    0.4214011023          0.2287
C135       C    0.5000000000    1.0785988977    0.5000000000          0.2183
C136       C    0.5785988977    1.0000000000    0.5000000000          0.2221
C137       C    0.5000000000    0.9214011023    0.5000000000          0.2334
C138       C    0.5000000000    1.0000000000    0.5785988977          0.2239
Zn139     Zn    0.4754032924    0.5245967076   -0.0245967076          1.4972
Zn140     Zn    0.5245967076    0.5245967076    0.0245967076          1.4936
Zn141     Zn    0.4754032924    0.4754032924    0.0245967076          1.4911
Zn142     Zn    0.5245967076    0.4754032924   -0.0245967076          1.4948
O143       O    0.5000000000    0.5000000000    0.0000000000         -2.3888
O144       O    0.4819232188    0.5657389351   -0.0180767812         -1.2951
O145       O    0.5180767812    0.5180767812    0.0657389351         -1.2933
O146       O    0.4342610649    0.4819232188    0.0180767812         -1.2885
O147       O    0.5180767812    0.5657389351    0.0180767812         -1.2953
O148       O    0.4342610649    0.5180767812   -0.0180767812         -1.2912
O149       O    0.4819232188    0.4819232188    0.0657389351         -1.2971
O150       O    0.5180767812    0.4342610649   -0.0180767812          -1.291
O151       O    0.5657389351    0.5180767812    0.0180767812         -1.2986
O152       O    0.4819232188    0.4342610649    0.0180767812         -1.2925
O153       O    0.5657389351    0.4819232188   -0.0180767812         -1.2971
O154       O    0.5180767812    0.4819232188   -0.0657389351         -1.2962
O155       O    0.4819232188    0.5180767812   -0.0657389351         -1.2941
C156       C    0.5000000000    0.5785988977    0.0000000000          0.2238
C157       C    0.5000000000    0.5000000000    0.0785988977          0.2287
C158       C    0.4214011023    0.5000000000    0.0000000000          0.2183
C159       C    0.5000000000    0.4214011023    0.0000000000          0.2221
C160       C    0.5785988977    0.5000000000    0.0000000000          0.2334
C161       C    0.5000000000    0.5000000000   -0.0785988977          0.2239
Zn162     Zn    0.4754032924    0.5245967076    0.4754032924          1.4972
Zn163     Zn    0.4754032924    0.4754032924    0.5245967076          1.4936
Zn164     Zn    0.5245967076    0.4754032924    0.4754032924          1.4911
Zn165     Zn    0.5245967076    0.5245967076    0.5245967076          1.4948
O166       O    0.5000000000    0.5000000000    0.5000000000         -2.3888
O167       O    0.4342610649    0.5180767812    0.4819232188         -1.2951
O168       O    0.4819232188    0.4342610649    0.5180767812         -1.2933
O169       O    0.5180767812    0.4819232188    0.4342610649         -1.2885
O170       O    0.4342610649    0.4819232188    0.5180767812         -1.2953
O171       O    0.4819232188    0.5180767812    0.4342610649         -1.2912
O172       O    0.5180767812    0.4342610649    0.4819232188         -1.2971
O173       O    0.5657389351    0.5180767812    0.5180767812          -1.291
O174       O    0.4819232188    0.4819232188    0.5657389351         -1.2986
O175       O    0.5657389351    0.4819232188    0.4819232188         -1.2925
O176       O    0.5180767812    0.5180767812    0.5657389351         -1.2971
O177       O    0.5180767812    0.5657389351    0.5180767812         -1.2962
O178       O    0.4819232188    0.5657389351    0.4819232188         -1.2941
C179       C    0.4214011023    0.5000000000    0.5000000000          0.2238
C180       C    0.5000000000    0.4214011023    0.5000000000          0.2287
C181       C    0.5000000000    0.5000000000    0.4214011023          0.2183
C182       C    0.5785988977    0.5000000000    0.5000000000          0.2221
C183       C    0.5000000000    0.5000000000    0.5785988977          0.2334
C184       C    0.5000000000    0.5785988977    0.5000000000          0.2239
C1082      C    0.5000000000    0.5000000000   -0.1123831732          0.4451
C1083      C    0.5001133749    0.4741627720   -0.1259089256          0.4451
C1084      C    0.5016653879    0.4726083259   -0.1550182255          0.4446
C1085      C    0.5032444875    0.4966887641   -0.1722963496           0.444
C1086      C    0.5037190199    0.5225533941   -0.1579809969          0.4435
C1087      C    0.5020389488    0.5242006315   -0.1289379501          0.4441
C1088      C    0.5038119462    0.4953043557   -0.2020929726          0.4444
H1089      H    0.5017662953    0.4503929342   -0.1632904566          0.4444
H1090      H    0.4986861652    0.4538627668   -0.1134259545          0.4457
H1091      H    0.5021561550    0.5460800843   -0.1194406581           0.444
H1092      H    0.5046445210    0.5435504646   -0.1689614994          0.4432
C1093      C    0.4998528186    0.4698158886   -0.2164041756           0.448
C1094      C    0.4991566674    0.4675051375   -0.2455966809         -0.5505
C1095      C    0.5026048348    0.4916463563   -0.2622603551          0.4472
C1096      C    0.5071335253    0.5172359846   -0.2485182045          0.4431
C1097      C    0.5076472399    0.5190021509   -0.2193744378          0.4417
N1098      N    0.5003586624    0.4878880988   -0.2903963860         -0.5499
C1099      C    0.4942308205    0.4372481015   -0.2600316470          -0.546
H1100      H    0.4959746017    0.4498396171   -0.2046309392         -0.5491
H1101      H    0.5114384640    0.5408241918   -0.2108283944          0.4383
H1102      H    0.5100458817    0.5374858805   -0.2607982060          0.4411
N1103      N    0.5051427967    0.5095238925   -0.3074587926          0.4466
C1104      C    0.4940087465    0.5018710982   -0.3373848337         -0.5426
O1105      O    0.5096185246    0.5153018223   -0.3614331587          0.4442
C1106      C    0.4988898722    0.4675822539   -0.3781907685         -0.5462
C1107      C    0.4962057606    0.4687329794   -0.3449611401         -0.5448
H1108      H    0.5159120334    0.4588608253   -0.3354495806           0.437
H1109      H    0.5191308599    0.4560622378   -0.3839456253          0.4355
H1110      H    0.4802416352    0.4562685764   -0.3881051079         -0.5292
H1111      H    0.4769305170    0.4567609944   -0.3372392065         -0.5277
H1112      H    0.4778584200    0.5075746753   -0.3929706784         -0.5262
C1113      C    0.5000000000    0.5000000000   -0.3876168268         -0.5465
H1114      H    0.4710570453    0.5092508222   -0.3390169409         -0.5217
C1115      C    0.5008272627    0.4098808893   -0.2412339787          0.4471
H1116      H    0.4847624991    0.4073706437   -0.2236250135          -0.539
H1117      H    0.5228087344    0.4111985446   -0.2317546584           0.427
H1118      H    0.4997428747    0.3902130094   -0.2548992683          0.4482
H1119      H    0.4715764924    0.4359412965   -0.2677986200         -0.5253
H1120      H    0.5082412829    0.4351091035   -0.2793561914          0.4419
C1043      C    0.5000000000    0.5000000000    0.1123831732          0.4451
C1044      C    0.4741667350    0.5004665000    0.1259089256          0.4451
C1045      C    0.4726336465    0.5020396138    0.1550182255          0.4446
C1046      C    0.4967334181    0.5032894414    0.1722963496           0.444
C1047      C    0.5226021179    0.5034104193    0.1579809969          0.4435
C1048      C    0.5242262388    0.5017079911    0.1289379501          0.4441
C1049      C    0.4953568949    0.5038757688    0.2020929726          0.4444
H1050      H    0.4504217091    0.5024441453    0.1632904566          0.4444
H1051      H    0.4538491193    0.4993168783    0.1134259545          0.4457
H1052      H    0.5461052498    0.5015261443    0.1194406581           0.444
H1053      H    0.5436098767    0.5040488520    0.1689614994          0.4432
C1054      C    0.4698166964    0.5002653801    0.2164041756           0.448
C1055      C    0.4674966463    0.4996008765    0.2455966809         -0.5505
C1056      C    0.4916827387    0.5027187666    0.2622603551          0.4472
C1057      C    0.5173318736    0.5068972825    0.2485182045          0.4431
C1058      C    0.5191048962    0.5073868097    0.2193744378          0.4417
N1059      N    0.4878941322    0.5005241708    0.2903963860         -0.5499
C1060      C    0.4371751116    0.4950890342    0.2600316470          -0.546
H1061      H    0.4497892845    0.4966605553    0.2046309392         -0.5491
H1062      H    0.5409767161    0.5108794223    0.2108283944          0.4383
H1063      H    0.5376196833    0.5095325971    0.2607982060          0.4411
N1064      N    0.5095932931    0.5050121465    0.3074587926          0.4466
C1065      C    0.5017890367    0.4939837325    0.3373848337         -0.5426
O1066      O    0.5154318562    0.5094084853    0.3614331587          0.4442
C1067      C    0.4675701091    0.4993330523    0.3781907685         -0.5462
C1068      C    0.4686840414    0.4966334636    0.3449611401         -0.5448
H1069      H    0.4590821491    0.5164728254    0.3354495806           0.437
H1070      H    0.4563278170    0.5197296016    0.3839456253          0.4355
H1071      H    0.4560026096    0.4808411892    0.3881051079         -0.5292
H1072      H    0.4564497262    0.4775236501    0.3372392065         -0.5277
H1073      H    0.5072713431    0.4777569598    0.3929706784         -0.5262
C1074      C    0.5000000000    0.5000000000    0.3876168268         -0.5465
H1075      H    0.5088543741    0.4709333113    0.3390169409         -0.5217
C1076      C    0.4099006139    0.5020589074    0.2412339787          0.4471
H1077      H    0.4071710342    0.4860299537    0.2236250135          -0.539
H1078      H    0.4115185825    0.5240203166    0.2317546584           0.427
H1079      H    0.3902197500    0.5012434356    0.2548992683          0.4482
H1080      H    0.4355587958    0.4724546832    0.2677986200         -0.5253
H1081      H    0.4352278042    0.5091274232    0.2793561914          0.4419
C1004      C    0.5000000000    0.8876168268    0.5000000000          0.4451
C1005      C    0.5255088707    0.8740910744    0.5041076419          0.4451
C1006      C    0.5272959082    0.8449817745    0.5028303227          0.4446
C1007      C    0.5037966409    0.8277036504    0.4973398309           0.444
C1008      C    0.4783567477    0.8420190031    0.4926476995          0.4435
C1009      C    0.4764572514    0.8710620499    0.4940362037          0.4441
C1010      C    0.5052551353    0.7979070274    0.4970060791          0.4444
H1011      H    0.5492295307    0.8367095434    0.5063587802          0.4444
H1012      H    0.5453032636    0.8865740455    0.5088308979          0.4457
H1013      H    0.4548906779    0.8805593419    0.4903474233           0.444
H1014      H    0.4577927134    0.8310385006    0.4883055782          0.4432
C1015      C    0.5297548442    0.7835958244    0.5050745924           0.448
C1016      C    0.5319208839    0.7544033191    0.5061387679         -0.5505
C1017      C    0.5086668908    0.7377396449    0.4987943750          0.4472
C1018      C    0.4841603945    0.7514817955    0.4901474245          0.4431
C1019      C    0.4825018346    0.7806255622    0.4893521729          0.4417
N1020      N    0.5120078687    0.7096036140    0.5016241553         -0.5499
C1021      C    0.5609672666    0.7399683530    0.5159397801          -0.546
H1022      H    0.5488295740    0.7953690608    0.5121630811         -0.5491
H1023      H    0.4615919084    0.7891716056    0.4820480753          0.4383
H1024      H    0.4646579784    0.7392017940    0.4839671436          0.4411
N1025      N    0.4914438422    0.6925412074    0.4933708938          0.4466
C1026      C    0.4971755863    0.6626151663    0.5056052488         -0.5426
O1027      O    0.4864744169    0.6385668413    0.4880116564          0.4442
C1028      C    0.5318012323    0.6218092315    0.5063893873         -0.5462
C1029      C    0.5302276116    0.6550388599    0.5088495382         -0.5448
H1030      H    0.5431854734    0.6645504194    0.4910200561           0.437
H1031      H    0.5464721576    0.6160543747    0.4883014824          0.4355
H1032      H    0.5399175644    0.6118948921    0.5266349102         -0.5292
H1033      H    0.5388910164    0.6627607935    0.5298211585         -0.5277
H1034      H    0.4889110611    0.6070293216    0.5206072973         -0.5262
C1035      C    0.5000000000    0.6123831732    0.5000000000         -0.5465
H1036      H    0.4861466801    0.6609830591    0.5270436289         -0.5217
C1037      C    0.5890443350    0.7587660213    0.5139012546          0.4471
H1038      H    0.5888973328    0.7763749865    0.5301602936          -0.539
H1039      H    0.5913341782    0.7682453416    0.4919997036           0.427
H1040      H    0.6082710755    0.7451007317    0.5181830586          0.4482
H1041      H    0.5585568342    0.7322013800    0.5385033822         -0.5253
H1042      H    0.5653656058    0.7206438086    0.5024667336          0.4419
C965       C    0.5000000000    1.1123831732    0.5000000000          0.4451
C966       C    0.5249714185    1.1259089256    0.5066335105          0.4451
C967       C    0.5260836194    1.1550182255    0.5085277271          0.4446
C968       C    0.5023847229    1.1722963496    0.5039754344           0.444
C969       C    0.4772383458    1.1579809969    0.4979038629          0.4435
C970       C    0.4760686945    1.1289379501    0.4958623081          0.4441
C971       C    0.5035809921    1.2020929726    0.5048740645          0.4444
H972       H    0.5475537050    1.1632904566    0.5142346731          0.4444
H973       H    0.5449740246    1.1134259545    0.5103782254          0.4457
H974       H    0.4548685897    1.1194406581    0.4904512316           0.444
H975       H    0.4566879405    1.1689614994    0.4934976892          0.4432
C976       C    0.5292432429    1.2164041756    0.5074789696           0.448
C977       C    0.5316548964    1.2455966809    0.5073888317         -0.5505
C978       C    0.5074252557    1.2622603551    0.5046296981          0.4472
C979       C    0.4815213090    1.2485182045    0.5025503580          0.4431
C980       C    0.4796826592    1.2193744378    0.5026014763          0.4417
N981       N    0.5116288882    1.2903963860    0.5034052534         -0.5499
C982       C    0.5621752972    1.2600316470    0.5102623882          -0.546
H983       H    0.5495514757    1.2046309392    0.5087703537         -0.5491
H984       H    0.4576104294    1.2108283944    0.5007598679          0.4383
H985       H    0.4611921942    1.2607982060    0.5002553201          0.4411
N986       N    0.4894861644    1.3074587926    0.5025714095          0.4466
C987       C    0.4997022999    1.3373848337    0.4937304305         -0.5426
O988       O    0.4827653466    1.3614331587    0.5054432071          0.4442
C989       C    0.5316476435    1.3781907685    0.5071112097         -0.5462
C990       C    0.5312119328    1.3449611401    0.5042235150         -0.5448
H991       H    0.5357884430    1.3354495806    0.5257839456           0.437
H992       H    0.5376836077    1.3839456253    0.5296051086          0.4355
H993       H    0.5473033474    1.3881051079    0.4919238801         -0.5292
H994       H    0.5476629306    1.3372392065    0.4885957156         -0.5277
H995       H    0.4982614318    1.3929706784    0.4766632768         -0.5262
C996       C    0.5000000000    1.3876168268    0.5000000000         -0.5465
H997       H    0.4983569190    1.3390169409    0.4696590603         -0.5217
C998       C    0.5869901734    1.2412339787    0.5235552161          0.4471
H999       H    0.5934753779    1.2236250135    0.5086448142          -0.539
H1000      H    0.5801649687    1.2317546584    0.5444917367           0.427
H1001      H    0.6062945751    1.2548992683    0.5274720352          0.4482
H1002      H    0.5691598971    1.2677986200    0.4886720736         -0.5253
H1003      H    0.5607073946    1.2793561914    0.5243589705          0.4419
C926       C    0.5000000000    0.6123831732    0.0000000000          0.4451
C927       C    0.4770140589    0.6259089256   -0.0117992252          0.4451
C928       C    0.4763307604    0.6550182255   -0.0138868436          0.4446
C929       C    0.4985165828    0.6722963496   -0.0043920901           0.444
C930       C    0.5217931390    0.6579809969    0.0068953453          0.4435
C931       C    0.5225011932    0.6289379501    0.0091391567          0.4441
C932       C    0.4975391256    0.7020929726   -0.0055248626          0.4444
H933       H    0.4565685160    0.6632904566   -0.0240351195          0.4444
H934       H    0.4582677578    0.6134259545   -0.0197177689          0.4457
H935       H    0.5420626578    0.6194406581    0.0189408552           0.444
H936       H    0.5409338101    0.6689614994    0.0155768332          0.4432
C937       C    0.4730202728    0.7164041756   -0.0135350125           0.448
C938       C    0.4706447441    0.7455966809   -0.0139605247         -0.5505
C939       C    0.4937310048    0.7622603551   -0.0061047708          0.4472
C940       C    0.5185979330    0.7485182045    0.0014433411          0.4431
C941       C    0.5204052925    0.7193744378    0.0017849518          0.4417
N942       N    0.4893630426    0.7903963860   -0.0058036133         -0.5499
C943       C    0.4414363930    0.7600316470   -0.0232677485          -0.546
H944       H    0.4534528977    0.7046309392   -0.0191215875         -0.5491
H945       H    0.5415790258    0.7108283944    0.0082847881          0.4383
H946       H    0.5379719744    0.7607982060    0.0080149943          0.4411
N947       N    0.5108202649    0.8074587926   -0.0002734123          0.4466
C948       C    0.4989557122    0.8373848337    0.0061891510         -0.5426
O949       O    0.5179984894    0.8614331587   -0.0016480781          0.4442
C950       C    0.4705927086    0.8781907685   -0.0136877265         -0.5462
C951       C    0.4704034651    0.8449611401   -0.0107734836         -0.5448
H952       H    0.4705234146    0.8354495806   -0.0328139515           0.437
H953       H    0.4694854723    0.8839456253   -0.0369510534          0.4355
H954       H    0.4520618544    0.8881051079   -0.0021827932         -0.5292
H955       H    0.4510017583    0.8372392065    0.0009924508         -0.5277
H956       H    0.4967289306    0.8929706784    0.0231716502         -0.5262
C957       C    0.5000000000    0.8876168268    0.0000000000         -0.5465
H958       H    0.4951440253    0.8390169409    0.0299948636         -0.5217
C959       C    0.4200215625    0.7412339787   -0.0415401975          0.4471
H960       H    0.4105098217    0.7236250135   -0.0283529025          -0.539
H961       H    0.4311488184    0.7317546584   -0.0605429734           0.427
H962       H    0.4019941008    0.7548992683   -0.0494782087          0.4482
H963       H    0.4300141672    0.7677986200   -0.0036601204         -0.5253
H964       H    0.4458726127    0.7793561914   -0.0367283698          0.4419
C887       C    0.5000000000    1.1123831732    0.0000000000          0.4451
C888       C    0.5192252066    1.1259089256   -0.0172617101          0.4451
C889       C    0.5214192130    1.1550182255   -0.0171550180          0.4446
C890       C    0.5046322767    1.1722963496    0.0001816435           0.444
C891       C    0.4857814510    1.1579809969    0.0178974735          0.4435
C892       C    0.4834327016    1.1289379501    0.0177581672          0.4441
C893       C    0.5060392835    1.2020929726   -0.0003272062          0.4444
H894       H    0.5379517492    1.1632904566   -0.0319944606          0.4444
H895       H    0.5333122703    1.1134259545   -0.0319478183          0.4457
H896       H    0.4672955740    1.1194406581    0.0325337317           0.444
H897       H    0.4708409414    1.1689614994    0.0326797161          0.4432
C898       C    0.5222719472    1.2164041756   -0.0203730854           0.448
C899       C    0.5235171865    1.2455966809   -0.0224403484         -0.5505
C900       C    0.5079399956    1.2622603551   -0.0036776347          0.4472
C901       C    0.4920147311    1.2485182045    0.0168582866          0.4431
C902       C    0.4910506291    1.2193744378    0.0184247327          0.4417
N903       N    0.5092174433    1.2903963860   -0.0078654644         -0.5499
C904       C    0.5426350401    1.2600316470   -0.0464040682          -0.546
H905       H    0.5344736023    1.2046309392   -0.0366584040         -0.5491
H906       H    0.4774225918    1.2108283944    0.0358847284          0.4383
H907       H    0.4789618538    1.2607982060    0.0326114609          0.4411
N908       N    0.4963940288    1.3074587926    0.0102053838          0.4466
C909       C    0.4945910397    1.3373848337   -0.0031842228         -0.5426
O910       O    0.4951165189    1.3614331587    0.0174015342          0.4442
C911       C    0.5232809202    1.3781907685   -0.0225863101         -0.5462
C912       C    0.5206260980    1.3449611401   -0.0238030861         -0.5448
H913       H    0.5411725213    1.3354495806   -0.0158255487           0.437
H914       H    0.5454076246    1.3839456253   -0.0153187588          0.4355
H915       H    0.5191465463    1.3881051079   -0.0440027289         -0.5292
H916       H    0.5165586858    1.3372392065   -0.0461261593         -0.5277
H917       H    0.4795214027    1.3929706784   -0.0113248542         -0.5262
C918       C    0.5000000000    1.3876168268    0.0000000000         -0.5465
H919       H    0.4737130571    1.3390169409   -0.0152403730         -0.5217
C920       C    0.5673465702    1.2412339787   -0.0598880452          0.4471
H921       H    0.5584219967    1.2236250135   -0.0734795848          -0.539
H922       H    0.5811271866    1.2317546584   -0.0427120175           0.427
H923       H    0.5811952906    1.2548992683   -0.0738956981          0.4482
H924       H    0.5283946622    1.2677986200   -0.0640714947         -0.5253
H925       H    0.5536262219    1.2793561914   -0.0374563148          0.4419
C848       C    0.5000000000    1.0000000000   -0.3876168268          0.4451
C849       C    0.5258374339    0.9999529290   -0.3740910744          0.4451
C850       C    0.5273958576    0.9984049100   -0.3449817745          0.4446
C851       C    0.5033195510    0.9967640205   -0.3277036504           0.444
C852       C    0.4774562240    0.9962231158   -0.3420190031          0.4515
C853       C    0.4758046805    0.9978989543   -0.3710620499          0.4441
C854       C    0.5047054111    0.9962001163   -0.2979070274          0.4444
H855       H    0.5496114351    0.9983610122   -0.3367095434          0.4444
H856       H    0.5461337097    1.0014322278   -0.3865740455          0.4457
H857       H    0.4539256005    0.9977256015   -0.3805593419           0.444
H858       H    0.4564615975    0.9952437352   -0.3310385006          0.4432
C859       C    0.5301836343    1.0002246393   -0.2835958244           0.448
C860       C    0.5324925914    1.0009267181   -0.2544033191         -0.5505
C861       C    0.5083603007    0.9974166109   -0.2377396449          0.4472
C862       C    0.4827823782    0.9928222672   -0.2514817955          0.4431
C863       C    0.4810175360    0.9923040220   -0.2806255622          0.4417
N864       N    0.5121127818    0.9996724203   -0.2096036140         -0.5499
C865       C    0.5627368870    1.0059301943   -0.2399683530          -0.546
H866       H    0.5501498878    1.0041541066   -0.2953690608         -0.5491
H867       H    0.4592052960    0.9884568106   -0.2891716056          0.4383
H868       H    0.4625400226    0.9898579552   -0.2392017940          0.4411
N869       N    0.4904893363    0.9948327800   -0.1925412074          0.4466
C870       C    0.4981135332    1.0059864321   -0.1626151663         -0.5426
O871       O    0.4847229111    0.9903422395   -0.1385668413          0.4442
C872       C    0.5324147905    1.0011933145   -0.1218092315         -0.5462
C873       C    0.5312571808    1.0038744643   -0.1550388599         -0.5448
H874       H    0.5411798727    0.9841935903   -0.1645504194           0.437
H875       H    0.5439867111    0.9809819561   -0.1160543747          0.4355
H876       H    0.5436805757    1.0198705233   -0.1118948921         -0.5292
H877       H    0.5431796624    1.0231803669   -0.1627607935         -0.5277
H878       H    0.4923685299    1.0221220689   -0.1070293216         -0.5262
C879       C    0.5000000000    1.0000000000   -0.1123831732         -0.5465
H880       H    0.4906749349    1.0289191199   -0.1609830591         -0.5217
C881       C    0.5901209369    0.9994040036   -0.2587660213          0.4471
H882       H    0.5925899489    1.0154751561   -0.2763749865          -0.539
H883       H    0.5888596947    0.9774192229   -0.2682453416           0.427
H884       H    0.6097859693    1.0005388597   -0.2451007317          0.4482
H885       H    0.5639855522    1.0285878014   -0.2322013800         -0.5253
H886       H    0.5649118316    0.9919252672   -0.2206438086          0.4419
C809       C    0.5000000000    1.0000000000    0.1123831732          0.4451
C810       C    0.5258332650    0.9995335000    0.1259089256          0.4451
C811       C    0.5273663535    0.9979603862    0.1550182255          0.4446
C812       C    0.5032665819    0.9967105586    0.1722963496           0.444
C813       C    0.4773978821    0.9965895807    0.1579809969          0.4435
C814       C    0.4757737612    0.9982920089    0.1289379501          0.4441
C815       C    0.5046431051    0.9961242312    0.2020929726          0.4444
H816       H    0.5495782909    0.9975558547    0.1632904566          0.4444
H817       H    0.5461508807    1.0006831217    0.1134259545          0.4457
H818       H    0.4538947502    0.9984738557    0.1194406581           0.444
H819       H    0.4563901233    0.9959511480    0.1689614994          0.4432
C820       C    0.5301833036    0.9997346199    0.2164041756           0.448
C821       C    0.5325033537    1.0003991235    0.2455966809         -0.5505
C822       C    0.5083172613    0.9972812334    0.2622603551          0.4472
C823       C    0.4826681264    0.9931027175    0.2485182045          0.4431
C824       C    0.4808951038    0.9926131903    0.2193744378          0.4417
N825       N    0.5121058678    0.9994758292    0.2903963860         -0.5499
C826       C    0.5628248884    1.0049109658    0.2600316470          -0.546
H827       H    0.5502107155    1.0033394447    0.2046309392         -0.5491
H828       H    0.4590232839    0.9891205777    0.2108283944          0.4383
H829       H    0.4623803167    0.9904674029    0.2607982060          0.4411
N830       N    0.4904067069    0.9949878535    0.3074587926          0.4466
C831       C    0.4982109633    1.0060162675    0.3373848337         -0.5426
O832       O    0.4845681438    0.9905915147    0.3614331587          0.4442
C833       C    0.5324298909    1.0006669477    0.3781907685         -0.5462
C834       C    0.5313159586    1.0033665364    0.3449611401         -0.5448
H835       H    0.5409178509    0.9835271746    0.3354495806           0.437
H836       H    0.5436721830    0.9802703984    0.3839456253          0.4355
H837       H    0.5439973904    1.0191588108    0.3881051079         -0.5292
H838       H    0.5435502738    1.0224763499    0.3372392065         -0.5277
H839       H    0.4927286569    1.0222430402    0.3929706784         -0.5262
C840       C    0.5000000000    1.0000000000    0.3876168268         -0.5465
H841       H    0.4911456259    1.0290666887    0.3390169409         -0.5217
C842       C    0.5900993861    0.9979410926    0.2412339787          0.4471
H843       H    0.5928289658    1.0139700463    0.2236250135          -0.539
H844       H    0.5884814175    0.9759796834    0.2317546584           0.427
H845       H    0.6097802500    0.9987565644    0.2548992683          0.4482
H846       H    0.5644412042    1.0275453168    0.2677986200         -0.5253
H847       H    0.5647721958    0.9908725768    0.2793561914          0.4419
C770       C    0.8876168268    0.5000000000    0.5000000000          0.4451
C771       C    0.8740910744    0.5147819401    0.4788087412          0.4451
C772       C    0.8449817745    0.5169424618    0.4784122646          0.4446
C773       C    0.8277036504    0.5045516316    0.4991204367           0.444
C774       C    0.8420190031    0.4902377716    0.5206684685          0.4435
C775       C    0.8710620499    0.4879191468    0.5210684804          0.4441
C776       C    0.7979070274    0.5058055145    0.4983041194          0.4444
H777       H    0.8367095434    0.5296551024    0.4601935222          0.4444
H778       H    0.8865740455    0.5251485205    0.4612969980          0.4457
H779       H    0.8805593419    0.4755769271    0.5391348526           0.444
H780       H    0.8310385006    0.4790621594    0.5384684465          0.4432
C781       C    0.7835958244    0.5170388240    0.4750845285           0.448
C782       C    0.7544033191    0.5177797962    0.4727877574         -0.5505
C783       C    0.7377396449    0.5068920524    0.4946085122          0.4472
C784       C    0.7514817955    0.4960697987    0.5182351272          0.4431
C785       C    0.7806255622    0.4954883407    0.5199801638          0.4417
N786       N    0.7096036140    0.5071807755    0.4902397104         -0.5499
C787       C    0.7399683530    0.5309287765    0.4450955833          -0.546
H788       H    0.7953690608    0.5252049700    0.4564456968         -0.5491
H789       H    0.7891716056    0.4862012931    0.5400880130          0.4383
H790       H    0.7392017940    0.4869535031    0.5365499644          0.4411
N791       N    0.6925412074    0.4988164561    0.5107588155          0.4466
C792       C    0.6626151663    0.4940073947    0.4981332358         -0.5426
O793       O    0.6385668413    0.4992137391    0.5180566767          0.4442
C794       C    0.6218092315    0.5175164685    0.4726995242         -0.5462
C795       C    0.6550388599    0.5146541129    0.4721202618         -0.5448
H796       H    0.6645504194    0.5364784236    0.4752018324           0.437
H797       H    0.6160543747    0.5407174998    0.4747294251          0.4355
H798       H    0.6118948921    0.5086068937    0.4527903424         -0.5292
H799       H    0.6627607935    0.5056029669    0.4513130468         -0.5277
H800       H    0.6070293216    0.4774783512    0.4936438532         -0.5262
C801       C    0.6123831732    0.5000000000    0.5000000000         -0.5465
H802       H    0.6609830591    0.4709301086    0.4911561464         -0.5217
C803       C    0.7587660213    0.5519140003    0.4263313156          0.4471
H804       H    0.7763749865    0.5401249708    0.4151332468          -0.539
H805       H    0.7682453416    0.5692485711    0.4399119625           0.427
H806       H    0.7451007317    0.5622032442    0.4095345047          0.4482
H807       H    0.7322013800    0.5130344932    0.4311413385         -0.5253
H808       H    0.7206438086    0.5436709100    0.4513009362          0.4419
C731       C    1.1123831732    0.5000000000    0.5000000000          0.4451
C732       C    1.1259089256    0.5131996583    0.4777886465          0.4451
C733       C    1.1550182255    0.5126689322    0.4756571266          0.4446
C734       C    1.1722963496    0.4989222493    0.4954911825           0.444
C735       C    1.1579809969    0.4852044134    0.5174234701          0.4435
C736       C    1.1289379501    0.4857971832    0.5197004536          0.4441
C737       C    1.2020929726    0.4991481783    0.4940121449          0.4444
H738       H    1.1632904566    0.5240153390    0.4565575752          0.4444
H739       H    1.1134259545    0.5248705483    0.4611177898          0.4457
H740       H    1.1194406581    0.4744366520    0.5383997189           0.444
H741       H    1.1689614994    0.4736049539    0.5349501944          0.4432
C742       C    1.2164041756    0.5156601402    0.4741956932           0.448
C743       C    1.2455966809    0.5174462294    0.4725727074         -0.5505
C744       C    1.2622603551    0.5020657156    0.4914969802          0.4472
C745       C    1.2485182045    0.4850133451    0.5111070483          0.4431
C746       C    1.2193744378    0.4836639434    0.5123569927          0.4417
N747       N    1.2903963860    0.5059257474    0.4894305956         -0.5499
C748       C    1.2600316470    0.5372411582    0.4491651662          -0.546
H749       H    1.2046309392    0.5292659335    0.4590637938         -0.5491
H750       H    1.2108283944    0.4691828318    0.5291162367          0.4383
H751       H    1.2607982060    0.4720948689    0.5269706254          0.4411
N752       N    1.3074587926    0.4906891584    0.5055191589          0.4466
C753       C    1.3373848337    0.5041739978    0.5046876294         -0.5426
O754       O    1.3614331587    0.4838780876    0.5081698054          0.4442
C755       C    1.3781907685    0.5176352941    0.4727761309         -0.5462
C756       C    1.3449611401    0.5193444596    0.4751441212         -0.5448
H757       H    1.3354495806    0.5075287777    0.4565380395           0.437
H758       H    1.3839456253    0.5062091996    0.4524819762          0.4355
H759       H    1.3881051079    0.5394468822    0.4726728363         -0.5292
H760       H    1.3372392065    0.5420324384    0.4747990719         -0.5277
H761       H    1.3929706784    0.5150861041    0.5178895146         -0.5262
C762       C    1.3876168268    0.5000000000    0.5000000000         -0.5465
H763       H    1.3390169409    0.5200550349    0.5228269120         -0.5217
C764       C    1.2412339787    0.5456695835    0.4223055496          0.4471
H765       H    1.2236250135    0.5607354880    0.4284208160          -0.539
H766       H    1.2317546584    0.5261444096    0.4121227749           0.427
H767       H    1.2548992683    0.5567212192    0.4060002515          0.4482
H768       H    1.2677986200    0.5573376595    0.4597035227         -0.5253
H769       H    1.2793561914    0.5263293108    0.4401208334          0.4419
C692       C    0.8876168268    0.5000000000    0.0000000000          0.4451
C693       C    0.8740910744    0.4750398171   -0.0066756628          0.4451
C694       C    0.8449817745    0.4739308161   -0.0085717546          0.4446
C695       C    0.8277036504    0.4976219926   -0.0039794551           0.444
C696       C    0.8420190031    0.5227580826    0.0021345650          0.4435
C697       C    0.8710620499    0.5239242853    0.0041780917          0.4441
C698       C    0.7979070274    0.4964272423   -0.0048801037          0.4444
H699       H    0.8367095434    0.4524703966   -0.0143149426          0.4444
H700       H    0.8865740455    0.4550435622   -0.0104541449          0.4457
H701       H    0.8805593419    0.5451152238    0.0096249548           0.444
H702       H    0.8310385006    0.5433010193    0.0065754298          0.4432
C703       C    0.7835958244    0.4707694263   -0.0075283333           0.448
C704       C    0.7544033191    0.4683576240   -0.0074422674         -0.5505
C705       C    0.7377396449    0.4925825716   -0.0046422283          0.4472
C706       C    0.7514817955    0.5184829707   -0.0025191549          0.4431
C707       C    0.7806255622    0.5203217041   -0.0025671688          0.4417
N708       N    0.7096036140    0.4883768779   -0.0034248828         -0.5499
C709       C    0.7399683530    0.4378421185   -0.0103673505          -0.546
H710       H    0.7953690608    0.4504634029   -0.0088540040         -0.5491
H711       H    0.7891716056    0.5423907932   -0.0006882962          0.4383
H712       H    0.7392017940    0.5388081815   -0.0001897966          0.4411
N713       N    0.6925412074    0.5105181622   -0.0025536543          0.4466
C714       C    0.6626151663    0.5002871141    0.0062700632         -0.5426
O715       O    0.6385668413    0.5172438192   -0.0054141003          0.4442
C716       C    0.6218092315    0.4683644081   -0.0071646335         -0.5462
C717       C    0.6550388599    0.4687952427   -0.0042762073         -0.5448
H718       H    0.6645504194    0.4642551417   -0.0258443341           0.437
H719       H    0.6160543747    0.4623664313   -0.0296686915          0.4355
H720       H    0.6118948921    0.4526830843    0.0079962413         -0.5292
H721       H    0.6627607935    0.4523178824    0.0113237939         -0.5277
H722       H    0.6070293216    0.5016991640    0.0233396253         -0.5262
C723       C    0.6123831732    0.5000000000    0.0000000000         -0.5465
H724       H    0.6609830591    0.5015918510    0.0303436706         -0.5217
C725       C    0.7587660213    0.4130497213   -0.0237020569          0.4471
H726       H    0.7763749865    0.4065393513   -0.0088026259          -0.539
H727       H    0.7682453416    0.4199102655   -0.0446270240           0.427
H728       H    0.7451007317    0.3937519602   -0.0276514640          0.4482
H729       H    0.7322013800    0.4308210754    0.0112111406         -0.5253
H730       H    0.7206438086    0.4393338197   -0.0244614343          0.4419
C653       C    1.1123831732    0.5000000000    0.0000000000          0.4451
C654       C    1.1259089256    0.4850552723    0.0210767720          0.4451
C655       C    1.1550182255    0.4854126996    0.0232440960          0.4446
C656       C    1.1722963496    0.5007113163    0.0045809400           0.444
C657       C    1.1579809969    0.5161500767   -0.0161759610          0.4435
C658       C    1.1289379501    0.5157425162   -0.0184932708          0.4441
C659       C    1.2020929726    0.5003670654    0.0060369920          0.4444
H660       H    1.1632904566    0.4725656941    0.0413683410          0.4444
H661       H    1.1134259545    0.4720803342    0.0367540842          0.4457
H662       H    1.1194406581    0.5285713793   -0.0362173917           0.444
H663       H    1.1689614994    0.5291227091   -0.0327121133          0.4432
C664       C    1.2164041756    0.4823135600    0.0244600098           0.448
C665       C    1.2455966809    0.4804026245    0.0259339579         -0.5505
C666       C    1.2622603551    0.4972565373    0.0083091480          0.4472
C667       C    1.2485182045    0.5158320848   -0.0098646559          0.4431
C668       C    1.2193744378    0.5172777220   -0.0110019242          0.4417
N669       N    1.2903963860    0.4932426978    0.0100581140         -0.5499
C670       C    1.2600316470    0.4587877408    0.0476721500          -0.546
H671       H    1.2046309392    0.4675338757    0.0384476087         -0.5491
H672       H    1.2108283944    0.5330608773   -0.0265411282          0.4383
H673       H    1.2607982060    0.5299855788   -0.0246368837          0.4411
N674       N    1.3074587926    0.5097248925   -0.0047517735          0.4466
C675       C    1.3373848337    0.4962168773   -0.0050084039         -0.5426
O676       O    1.3614331587    0.5167272253   -0.0068455618          0.4442
C677       C    1.3781907685    0.4802305479    0.0257159757         -0.5462
C678       C    1.3449611401    0.4787175399    0.0232180903         -0.5448
H679       H    1.3354495806    0.4889971843    0.0427148984           0.437
H680       H    1.3839456253    0.4899859877    0.0468640193          0.4355
H681       H    1.3881051079    0.4584814234    0.0240632122         -0.5292
H682       H    1.3372392065    0.4560754085    0.0217357520         -0.5277
H683       H    1.3929706784    0.4864028658   -0.0190458187         -0.5262
C684       C    1.3876168268    0.5000000000    0.0000000000         -0.5465
H685       H    1.3390169409    0.4818474948   -0.0243671683         -0.5217
C686       C    1.2412339787    0.4482246017    0.0737661617          0.4471
H687       H    1.2236250135    0.4336998340    0.0664580099          -0.539
H688       H    1.2317546584    0.4668667547    0.0854875716           0.427
H689       H    1.2548992683    0.4358963341    0.0891289484          0.4482
H690       H    1.2677986200    0.4396047369    0.0355503231         -0.5253
H691       H    1.2793561914    0.4689361562    0.0575654828          0.4419
C614       C    1.0000000000    0.5000000000   -0.1123831732          0.4451
C615       C    1.0258332650    0.5004665000   -0.1259089256          0.4451
C616       C    1.0273663535    0.5020396138   -0.1550182255          0.4446
C617       C    1.0032665819    0.5032894414   -0.1722963496           0.444
C618       C    0.9773978821    0.5034104193   -0.1579809969          0.4435
C619       C    0.9757737612    0.5017079911   -0.1289379501          0.4441
C620       C    1.0046431051    0.5038757688   -0.2020929726          0.4444
H621       H    1.0495782909    0.5024441453   -0.1632904566          0.4444
H622       H    1.0461508807    0.4993168783   -0.1134259545          0.4457
H623       H    0.9538947502    0.5015261443   -0.1194406581           0.444
H624       H    0.9563901233    0.5040488520   -0.1689614994          0.4432
C625       C    1.0301833036    0.5002653801   -0.2164041756           0.448
C626       C    1.0325033537    0.4996008765   -0.2455966809         -0.5505
C627       C    1.0083172613    0.5027187666   -0.2622603551          0.4472
C628       C    0.9826681264    0.5068972825   -0.2485182045          0.4431
C629       C    0.9808951038    0.5073868097   -0.2193744378          0.4417
N630       N    1.0121058678    0.5005241708   -0.2903963860         -0.5499
C631       C    1.0628248884    0.4950890342   -0.2600316470          -0.546
H632       H    1.0502107155    0.4966605553   -0.2046309392         -0.5491
H633       H    0.9590232839    0.5108794223   -0.2108283944          0.4383
H634       H    0.9623803167    0.5095325971   -0.2607982060          0.4411
N635       N    0.9904067069    0.5050121465   -0.3074587926          0.4466
C636       C    0.9982109633    0.4939837325   -0.3373848337         -0.5426
O637       O    0.9845681438    0.5094084853   -0.3614331587          0.4442
C638       C    1.0324298909    0.4993330523   -0.3781907685         -0.5462
C639       C    1.0313159586    0.4966334636   -0.3449611401         -0.5448
H640       H    1.0409178509    0.5164728254   -0.3354495806           0.437
H641       H    1.0436721830    0.5197296016   -0.3839456253          0.4355
H642       H    1.0439973904    0.4808411892   -0.3881051079         -0.5292
H643       H    1.0435502738    0.4775236501   -0.3372392065         -0.5277
H644       H    0.9927286569    0.4777569598   -0.3929706784         -0.5262
C645       C    1.0000000000    0.5000000000   -0.3876168268         -0.5465
H646       H    0.9911456259    0.4709333113   -0.3390169409         -0.5217
C647       C    1.0900993861    0.5020589074   -0.2412339787          0.4471
H648       H    1.0928289658    0.4860299537   -0.2236250135          -0.539
H649       H    1.0884814175    0.5240203166   -0.2317546584           0.427
H650       H    1.1097802500    0.5012434356   -0.2548992683          0.4482
H651       H    1.0644412042    0.4724546832   -0.2677986200         -0.5253
H652       H    1.0647721958    0.5091274232   -0.2793561914          0.4419
C575       C    1.0000000000    0.5000000000    0.3876168268          0.4451
C576       C    1.0258332650    0.5004665000    0.3740910744          0.4451
C577       C    1.0273663535    0.5020396138    0.3449817745          0.4446
C578       C    1.0032665819    0.5032894414    0.3277036504           0.444
C579       C    0.9773978821    0.5034104193    0.3420190031          0.4435
C580       C    0.9757737612    0.5017079911    0.3710620499          0.4441
C581       C    1.0046431051    0.5038757688    0.2979070274          0.4444
H582       H    1.0495782909    0.5024441453    0.3367095434          0.4444
H583       H    1.0461508807    0.4993168783    0.3865740455          0.4457
H584       H    0.9538947502    0.5015261443    0.3805593419           0.444
H585       H    0.9563901233    0.5040488520    0.3310385006          0.4432
C586       C    1.0301833036    0.5002653801    0.2835958244           0.448
C587       C    1.0325033537    0.4996008765    0.2544033191         -0.5505
C588       C    1.0083172613    0.5027187666    0.2377396449          0.4472
C589       C    0.9826681264    0.5068972825    0.2514817955          0.4431
C590       C    0.9808951038    0.5073868097    0.2806255622          0.4417
N591       N    1.0121058678    0.5005241708    0.2096036140         -0.5499
C592       C    1.0628248884    0.4950890342    0.2399683530          -0.546
H593       H    1.0502107155    0.4966605553    0.2953690608         -0.5491
H594       H    0.9590232839    0.5108794223    0.2891716056          0.4383
H595       H    0.9623803167    0.5095325971    0.2392017940          0.4411
N596       N    0.9904067069    0.5050121465    0.1925412074          0.4466
C597       C    0.9982109633    0.4939837325    0.1626151663         -0.5426
O598       O    0.9845681438    0.5094084853    0.1385668413          0.4442
C599       C    1.0324298909    0.4993330523    0.1218092315         -0.5462
C600       C    1.0313159586    0.4966334636    0.1550388599         -0.5448
H601       H    1.0409178509    0.5164728254    0.1645504194           0.437
H602       H    1.0436721830    0.5197296016    0.1160543747          0.4355
H603       H    1.0439973904    0.4808411892    0.1118948921         -0.5292
H604       H    1.0435502738    0.4775236501    0.1627607935         -0.5277
H605       H    0.9927286569    0.4777569598    0.1070293216         -0.5262
C606       C    1.0000000000    0.5000000000    0.1123831732         -0.5465
H607       H    0.9911456259    0.4709333113    0.1609830591         -0.5217
C608       C    1.0900993861    0.5020589074    0.2587660213          0.4471
H609       H    1.0928289658    0.4860299537    0.2763749865          -0.539
H610       H    1.0884814175    0.5240203166    0.2682453416           0.427
H611       H    1.1097802500    0.5012434356    0.2451007317          0.4482
H612       H    1.0644412042    0.4724546832    0.2322013800         -0.5253
H613       H    1.0647721958    0.5091274232    0.2206438086          0.4419
C536       C    1.0000000000   -0.3876168268    0.5000000000          0.4451
C537       C    0.9741667350   -0.3740910744    0.4995335000          0.4451
C538       C    0.9726336465   -0.3449817745    0.4979603862          0.4446
C539       C    0.9967334181   -0.3277036504    0.4967105586           0.444
C540       C    1.0226021179   -0.3420190031    0.4965895807          0.4435
C541       C    1.0242262388   -0.3710620499    0.4982920089          0.4441
C542       C    0.9953568949   -0.2979070274    0.4961242312          0.4444
H543       H    0.9504217091   -0.3367095434    0.4975558547          0.4444
H544       H    0.9538491193   -0.3865740455    0.5006831217          0.4457
H545       H    1.0461052498   -0.3805593419    0.4984738557           0.444
H546       H    1.0436098767   -0.3310385006    0.4959511480          0.4432
C547       C    0.9698166964   -0.2835958244    0.4997346199           0.448
C548       C    0.9674966463   -0.2544033191    0.5003991235         -0.5505
C549       C    0.9916827387   -0.2377396449    0.4972812334          0.4472
C550       C    1.0173318736   -0.2514817955    0.4931027175          0.4431
C551       C    1.0191048962   -0.2806255622    0.4926131903          0.4417
N552       N    0.9878941322   -0.2096036140    0.4994758292         -0.5499
C553       C    0.9371751116   -0.2399683530    0.5049109658          -0.546
H554       H    0.9497892845   -0.2953690608    0.5033394447         -0.5491
H555       H    1.0409767161   -0.2891716056    0.4891205777          0.4383
H556       H    1.0376196833   -0.2392017940    0.4904674029          0.4411
N557       N    1.0095932931   -0.1925412074    0.4949878535          0.4466
C558       C    1.0017890367   -0.1626151663    0.5060162675         -0.5426
O559       O    1.0154318562   -0.1385668413    0.4905915147          0.4442
C560       C    0.9675701091   -0.1218092315    0.5006669477         -0.5462
C561       C    0.9686840414   -0.1550388599    0.5033665364         -0.5448
H562       H    0.9590821491   -0.1645504194    0.4835271746           0.437
H563       H    0.9563278170   -0.1160543747    0.4802703984          0.4355
H564       H    0.9560026096   -0.1118948921    0.5191588108         -0.5292
H565       H    0.9564497262   -0.1627607935    0.5224763499         -0.5277
H566       H    1.0072713431   -0.1070293216    0.5222430402         -0.5262
C567       C    1.0000000000   -0.1123831732    0.5000000000         -0.5465
H568       H    1.0088543741   -0.1609830591    0.5290666887         -0.5217
C569       C    0.9099006139   -0.2587660213    0.4979410926          0.4471
H570       H    0.9071710342   -0.2763749865    0.5139700463          -0.539
H571       H    0.9115185825   -0.2682453416    0.4759796834           0.427
H572       H    0.8902197500   -0.2451007317    0.4987565644          0.4482
H573       H    0.9355587958   -0.2322013800    0.5275453168         -0.5253
H574       H    0.9352278042   -0.2206438086    0.4908725768          0.4419
C497       C    1.0000000000    0.1123831732    0.5000000000          0.4451
C498       C    0.9922492241    0.1259089256    0.5246475288          0.4451
C499       C    0.9903068660    0.1550182255    0.5256733419          0.4446
C500       C    0.9959212560    0.1722963496    0.5022033677           0.444
C501       C    1.0031185375    0.1579809969    0.4773557642          0.4435
C502       C    1.0052106704    0.1289379501    0.4762791907          0.4441
C503       C    0.9949696914    0.2020929726    0.5033579763          0.4444
H504       H    0.9836393140    0.1632904566    0.5468647920          0.4444
H505       H    0.9876079671    0.1134259545    0.5444613087          0.4457
H506       H    1.0115705006    0.1194406581    0.4553441304           0.444
H507       H    1.0084452398    0.1689614994    0.4570245132          0.4432
C508       C    0.9912123428    0.2164041756    0.5288769687           0.448
C509       C    0.9911938384    0.2455966809    0.5312902352         -0.5505
C510       C    0.9950407760    0.2622603551    0.5072093428          0.4472
C511       C    0.9982839712    0.2485182045    0.4814252431          0.4431
C512       C    0.9983156642    0.2193744378    0.4795861560          0.4417
N513       N    0.9960747700    0.2903963860    0.5114638283         -0.5499
C514       C    0.9869494404    0.2600316470    0.5616503616          -0.546
H515       H    0.9890081736    0.2046309392    0.5491064924         -0.5491
H516       H    1.0011488992    0.2108283944    0.4576191892          0.4383
H517       H    1.0014917168    0.2607982060    0.4612200341          0.4411
N518       N    0.9979044349    0.3074587926    0.4893810785          0.4466
C519       C    1.0062766150    0.3373848337    0.4999848012         -0.5426
O520       O    0.9953380587    0.3614331587    0.4825378099          0.4442
C521       C    0.9914715055    0.3781907685    0.5312954857         -0.5462
C522       C    0.9943758853    0.3449611401    0.5309901946         -0.5448
H523       H    0.9726313130    0.3354495806    0.5345916099           0.437
H524       H    0.9687287195    0.3839456253    0.5363128595          0.4355
H525       H    1.0059387637    0.3881051079    0.5476189193         -0.5292
H526       H    1.0092473698    0.3372392065    0.5481279420         -0.5277
H527       H    1.0233913259    0.3929706784    0.4993136031         -0.5262
C528       C    1.0000000000    0.3876168268    0.5000000000         -0.5465
H529       H    1.0303841456    0.3390169409    0.4997242603         -0.5217
C530       C    0.9725531426    0.2412339787    0.5858417643          0.4471
H531       H    0.9871565271    0.2236250135    0.5929915281          -0.539
H532       H    0.9519450506    0.2317546584    0.5780811032           0.427
H533       H    0.9677713828    0.2548992683    0.6049503009          0.4482
H534       H    1.0082034893    0.2677986200    0.5695996842         -0.5253
H535       H    0.9729332170    0.2793561914    0.5595494454          0.4419
C458       C    0.8876168268   -0.0000000000    0.5000000000          0.4451
C459       C    0.8740910744   -0.0201678188    0.4838496351          0.4451
C460       C    0.8449817745   -0.0204206167    0.4816676313          0.4446
C461       C    0.8277036504   -0.0005767744    0.4954001833           0.444
C462       C    0.8420190031    0.0199779774    0.5111070748          0.4435
C463       C    0.8710620499    0.0202238522    0.5134470696          0.4441
C464       C    0.7979070274   -0.0013084241    0.4940950838          0.4444
H465       H    0.8367095434   -0.0377592019    0.4677785251          0.4444
H466       H    0.8865740455   -0.0369560269    0.4723481913          0.4457
H467       H    0.8805593419    0.0374348855    0.5269564932           0.444
H468       H    0.8310385006    0.0370003125    0.5234348334          0.4432
C469       C    0.7835958244   -0.0237347053    0.4813515147           0.448
C470       C    0.7544033191   -0.0259774747    0.4804603452         -0.5505
C471       C    0.7377396449   -0.0049241282    0.4927666405          0.4472
C472       C    0.7514817955    0.0179354581    0.5051269573          0.4431
C473       C    0.7806255622    0.0196382435    0.5058224915          0.4417
N474       N    0.7096036140   -0.0092642905    0.4921897688         -0.5499
C475       C    0.7399683530   -0.0527399306    0.4655096548          -0.546
H476       H    0.7953690608   -0.0417929868    0.4719711917         -0.5491
H477       H    0.7891716056    0.0390882375    0.5164183674          0.4383
H478       H    0.7392017940    0.0356076481    0.5154339357          0.4411
N479       N    0.6925412074    0.0106570527    0.5018921188          0.4466
C480       C    0.6626151663   -0.0022587959    0.5058561052         -0.5426
O481       O    0.6385668413    0.0179652140    0.5019780972          0.4442
C482       C    0.6218092315   -0.0260829210    0.4807172648         -0.5462
C483       C    0.6550388599   -0.0268501198    0.4835350708         -0.5448
H484       H    0.6645504194   -0.0223326902    0.4619621840           0.437
H485       H    0.6160543747   -0.0225238592    0.4577011523          0.4355
H486       H    0.6118948921   -0.0465374884    0.4882913467         -0.5292
H487       H    0.6627607935   -0.0482101143    0.4911910538         -0.5277
H488       H    0.6070293216   -0.0078309386    0.5220522486         -0.5262
C489       C    0.6123831732   -0.0000000000    0.5000000000         -0.5465
H490       H    0.6609830591   -0.0107460469    0.5284217313         -0.5217
C491       C    0.7587660213   -0.0700760259    0.4433299985          0.4471
H492       H    0.7763749865   -0.0820288653    0.4543530467          -0.539
H493       H    0.7682453416   -0.0553792561    0.4269310268           0.427
H494       H    0.7451007317   -0.0861559772    0.4319529794          0.4482
H495       H    0.7322013800   -0.0678464786    0.4824424199         -0.5253
H496       H    0.7206438086   -0.0457058873    0.4532055659          0.4419
C419       C    1.1123831732   -0.0000000000    0.5000000000          0.4451
C420       C    1.1259089256    0.0160721686    0.5202301904          0.4451
C421       C    1.1550182255    0.0182531774    0.5204914334          0.4446
C422       C    1.1722963496    0.0045975493    0.5005945773           0.444
C423       C    1.1579809969   -0.0110296511    0.4799791736          0.4435
C424       C    1.1289379501   -0.0133686766    0.4797242419          0.4441
C425       C    1.2020929726    0.0058998067    0.5013312739          0.4444
H426       H    1.1632904566    0.0320750569    0.5378836574          0.4444
H427       H    1.1134259545    0.0275085343    0.5370627979          0.4457
H428       H    1.1194406581   -0.0268113701    0.4624610388           0.444
H429       H    1.1689614994   -0.0232914191    0.4629092418          0.4432
C430       C    1.2164041756    0.0185564618    0.5238067210           0.448
C431       C    1.2455966809    0.0194389422    0.5260529235         -0.5505
C432       C    1.2622603551    0.0072142426    0.5049520936          0.4472
C433       C    1.2485182045   -0.0050574857    0.4820448284          0.4431
C434       C    1.2193744378   -0.0057464226    0.4803393631          0.4417
N435       N    1.2903963860    0.0077743080    0.5092944567         -0.5499
C436       C    1.2600316470    0.0342859155    0.5528730573          -0.546
H437       H    1.2046309392    0.0278668058    0.5419011811         -0.5491
H438       H    1.2108283944   -0.0162669227    0.4608484953          0.4383
H439       H    1.2607982060   -0.0152959728    0.4643328696          0.4411
N440       N    1.3074587926   -0.0018508481    0.4893357022          0.4466
C441       C    1.3373848337   -0.0058648057    0.5022361083         -0.5426
O442       O    1.3614331587   -0.0019085339    0.4820272629          0.4442
C443       C    1.3781907685    0.0191816164    0.5261573745         -0.5462
C444       C    1.3449611401    0.0163608614    0.5269136590         -0.5448
H445       H    1.3354495806    0.0379510748    0.5224797781           0.437
H446       H    1.3839456253    0.0422113345    0.5226874412          0.4355
H447       H    1.3881051079    0.0115284058    0.5465824672         -0.5292
H448       H    1.3372392065    0.0086222452    0.5482438549         -0.5277
H449       H    1.3929706784   -0.0220823992    0.5077455094         -0.5262
C450       C    1.3876168268   -0.0000000000    0.5000000000         -0.5465
H451       H    1.3390169409   -0.0284631193    0.5106359378         -0.5217
C452       C    1.2412339787    0.0563982927    0.5702948864          0.4471
H453       H    1.2236250135    0.0453290542    0.5822049629          -0.539
H454       H    1.2317546584    0.0728540368    0.5556617118           0.427
H455       H    1.2548992683    0.0677129765    0.5864187609          0.4482
H456       H    1.2677986200    0.0172947956    0.5679139406         -0.5253
H457       H    1.2793561914    0.0466171430    0.5458866994          0.4419
C380       C   -0.0000000000   -0.3876168268    0.0000000000          0.4451
C381       C   -0.0104266319   -0.3740910744   -0.0236402316          0.4451
C382       C   -0.0096428922   -0.3449817745   -0.0256922548          0.4446
C383       C    0.0016132792   -0.3277036504   -0.0043460686           0.444
C384       C    0.0125879439   -0.3420190031    0.0190795797          0.4435
C385       C    0.0117250820   -0.3710620499    0.0212685292          0.4441
C386       C    0.0015672444   -0.2979070274   -0.0058415541          0.4444
H387       H   -0.0186048016   -0.3367095434   -0.0460200188          0.4444
H388       H   -0.0200033556   -0.3865740455   -0.0415961081          0.4457
H389       H    0.0207492536   -0.3805593419    0.0412006268           0.444
H390       H    0.0219906120   -0.3310385006    0.0378764773          0.4432
C391       C   -0.0124361727   -0.2835958244   -0.0275035243           0.448
C392       C   -0.0140136483   -0.2544033191   -0.0293299329         -0.5505
C393       C   -0.0010259111   -0.2377396449   -0.0086899962          0.4472
C394       C    0.0135388482   -0.2514817955    0.0128322226          0.4431
C395       C    0.0147277766   -0.2806255622    0.0142356809          0.4417
N396       N   -0.0046087766   -0.2096036140   -0.0112065146         -0.5499
C397       C   -0.0308433209   -0.2399683530   -0.0549524681          -0.546
H398       H   -0.0241191656   -0.2953690608   -0.0441648468         -0.5491
H399       H    0.0270835873   -0.2891716056    0.0326179766          0.4383
H400       H    0.0244513549   -0.2392017940    0.0301370572          0.4411
N401       N    0.0085778327   -0.1925412074    0.0066010357          0.4466
C402       C   -0.0047085087   -0.1626151663    0.0041504304         -0.5426
O403       O    0.0150198156   -0.1385668413    0.0100532045          0.4442
C404       C   -0.0142258507   -0.1218092315   -0.0291507773         -0.5462
C405       C   -0.0162079391   -0.1550388599   -0.0270060278         -0.5448
H406       H   -0.0022360497   -0.1645504194   -0.0440525207           0.437
H407       H   -0.0004372697   -0.1160543747   -0.0479199910          0.4355
H408       H   -0.0358660144   -0.1118948921   -0.0318819604         -0.5292
H409       H   -0.0386889705   -0.1627607935   -0.0300828225         -0.5277
H410       H   -0.0171321172   -0.1070293216    0.0159410110         -0.5262
C411       C   -0.0000000000   -0.1123831732    0.0000000000         -0.5465
H412       H   -0.0226598659   -0.1609830591    0.0202435870         -0.5217
C413       C   -0.0359733062   -0.2587660213   -0.0826320744          0.4471
H414       H   -0.0516663878   -0.2763749865   -0.0783770595          -0.539
H415       H   -0.0153632579   -0.2682453416   -0.0903875387           0.427
H416       H   -0.0449793446   -0.2451007317   -0.1001504268          0.4482
H417       H   -0.0520633857   -0.2322013800   -0.0469128676         -0.5253
H418       H   -0.0189210204   -0.2206438086   -0.0626158302          0.4419
C341       C   -0.0000000000    0.3876168268    0.0000000000          0.4451
C342       C   -0.0253496879    0.3740910744    0.0049968519          0.4451
C343       C   -0.0265826241    0.3449817745    0.0068147945          0.4446
C344       C   -0.0026380062    0.3277036504    0.0038120737           0.444
C345       C    0.0228497559    0.3420190031   -0.0006126581          0.4435
C346       C    0.0241495952    0.3710620499   -0.0025738944          0.4441
C347       C   -0.0038901400    0.2979070274    0.0046310711          0.4444
H348       H   -0.0483781709    0.3367095434    0.0111145562          0.4444
H349       H   -0.0455533510    0.3865740455    0.0074338862          0.4457
H350       H    0.0456565061    0.3805593419   -0.0065959552           0.444
H351       H    0.0436430420    0.3310385006   -0.0036741573          0.4432
C352       C   -0.0296674219    0.2835958244    0.0055629416           0.448
C353       C   -0.0320681214    0.2544033191    0.0053162853         -0.5505
C354       C   -0.0077104001    0.2377396449    0.0041374215          0.4472
C355       C    0.0182739158    0.2514817955    0.0037457107          0.4431
C356       C    0.0201053581    0.2806255622    0.0039161962          0.4417
N357       N   -0.0118255843    0.2096036140    0.0026424132         -0.5499
C358       C   -0.0627107429    0.2399683530    0.0062005576          -0.546
H359       H   -0.0500166487    0.2953690608    0.0055319704         -0.5491
H360       H    0.0422506074    0.2891716056    0.0035127302          0.4383
H361       H    0.0387091977    0.2392017940    0.0027765062          0.4411
N362       N    0.0103245256    0.1925412074    0.0032491626          0.4466
C363       C    0.0007044667    0.1626151663   -0.0062369747         -0.5426
O364       O    0.0168445305    0.1385668413    0.0065516086          0.4442
C365       C   -0.0320428440    0.1218092315    0.0050397214         -0.5462
C366       C   -0.0314204121    0.1550388599    0.0021864420         -0.5448
H367       H   -0.0373882439    0.1645504194    0.0234039253           0.437
H368       H   -0.0395277020    0.1160543747    0.0270938650          0.4355
H369       H   -0.0466785903    0.1118948921   -0.0111328164         -0.5292
H370       H   -0.0468211498    0.1627607935   -0.0144773127         -0.5277
H371       H    0.0032513108    0.1070293216   -0.0231744309         -0.5262
C372       C    0.0000000000    0.1123831732    0.0000000000         -0.5465
H373       H    0.0036111584    0.1609830591   -0.0301700492         -0.5217
C374       C   -0.0883369408    0.2587660213    0.0178528249          0.4471
H375       H   -0.0938395636    0.2763749865    0.0025525274          -0.539
H376       H   -0.0828866128    0.2682453416    0.0391885986           0.427
H377       H   -0.1078550585    0.2451007317    0.0205069689          0.4482
H378       H   -0.0682776458    0.2322013800   -0.0157979859         -0.5253
H379       H   -0.0621619365    0.2206438086    0.0203627319          0.4419
C302       C   -0.1123831732   -0.0000000000    0.0000000000          0.4451
C303       C   -0.1259089256    0.0245506030   -0.0080525210          0.4451
C304       C   -0.1550182255    0.0265156552   -0.0070708809          0.4446
C305       C   -0.1722963496    0.0041664529    0.0020326467           0.444
C306       C   -0.1579809969   -0.0202244726    0.0106516384          0.4435
C307       C   -0.1289379501   -0.0223180110    0.0095778006          0.4441
C308       C   -0.2020929726    0.0056592216    0.0021338276          0.4444
H309       H   -0.1632904566    0.0476258615   -0.0139913578          0.4444
H310       H   -0.1134259545    0.0433608379   -0.0158179703          0.4457
H311       H   -0.1194406581   -0.0430405867    0.0165991287           0.444
H312       H   -0.1689614994   -0.0398545480    0.0181612101          0.4432
C313       C   -0.2164041756    0.0285927084   -0.0096726041           0.448
C314       C   -0.2455966809    0.0305653246   -0.0110629216         -0.5505
C315       C   -0.2622603551    0.0087487546   -0.0001667948          0.4472
C316       C   -0.2485182045   -0.0141008323    0.0122119972          0.4431
C317       C   -0.2193744378   -0.0156143557    0.0132572211          0.4417
N318       N   -0.2903963860    0.0116052507   -0.0034849600         -0.5499
C319       C   -0.2600316470    0.0577179936   -0.0252926354          -0.546
H320       H   -0.2046309392    0.0463216851   -0.0196613665         -0.5491
H321       H   -0.2108283944   -0.0351221041    0.0237463871          0.4383
H322       H   -0.2607982060   -0.0323944733    0.0213707528          0.4411
N323       N   -0.3074587926   -0.0074121954    0.0078874739          0.4466
C324       C   -0.3373848337   -0.0036675288   -0.0050936588         -0.5426
O325       O   -0.3614331587   -0.0114808368    0.0139589458          0.4442
C326       C   -0.3781907685    0.0304078941   -0.0112917059         -0.5462
C327       C   -0.3449611401    0.0284683516   -0.0134750060         -0.5448
H328       H   -0.3354495806    0.0440589895    0.0021047445           0.437
H329       H   -0.3839456253    0.0477309285    0.0042749519          0.4355
H330       H   -0.3881051079    0.0352528856   -0.0325586309         -0.5292
H331       H   -0.3372392065    0.0337399308   -0.0355447566         -0.5277
H332       H   -0.3929706784   -0.0141798870   -0.0186160166         -0.5262
C333       C   -0.3876168268   -0.0000000000    0.0000000000         -0.5465
H334       H   -0.3390169409   -0.0179183007   -0.0245399029         -0.5217
C335       C   -0.2412339787    0.0857677988   -0.0276771234          0.4471
H336       H   -0.2236250135    0.0830758767   -0.0437124443          -0.539
H337       H   -0.2317546584    0.0914599266   -0.0064045825           0.427
H338       H   -0.2548992683    0.1040865349   -0.0349176555          0.4482
H339       H   -0.2677986200    0.0518030648   -0.0472001669         -0.5253
H340       H   -0.2793561914    0.0641723926   -0.0126748264          0.4419
C263       C    0.1123831732   -0.0000000000    0.0000000000          0.4451
C264       C    0.1259089256   -0.0233077056    0.0111501598          0.4451
C265       C    0.1550182255   -0.0240492634    0.0132178008          0.4446
C266       C    0.1722963496   -0.0016059695    0.0043487750           0.444
C267       C    0.1579809969    0.0219778885   -0.0062816486          0.4435
C268       C    0.1289379501    0.0227485713   -0.0085047272          0.4441
C269       C    0.2020929726   -0.0026148005    0.0054536985          0.4444
H270       H    0.1632904566   -0.0440882539    0.0228080389          0.4444
H271       H    0.1134259545   -0.0422686400    0.0185400248          0.4457
H272       H    0.1194406581    0.0425771444   -0.0177541531           0.444
H273       H    0.1689614994    0.0413544277   -0.0144231015          0.4432
C274       C    0.2164041756   -0.0273485859    0.0127732961           0.448
C275       C    0.2455966809   -0.0297351104    0.0131320414         -0.5505
C276       C    0.2622603551   -0.0064376826    0.0059266154          0.4472
C277       C    0.2485182045    0.0186310877   -0.0009213674          0.4431
C278       C    0.2193744378    0.0204473140   -0.0012121731          0.4417
N279       N    0.2903963860   -0.0107954847    0.0055031173         -0.5499
C280       C    0.2600316470   -0.0591929150    0.0216167296          -0.546
H281       H    0.2046309392   -0.0470648931    0.0178090898         -0.5491
H282       H    0.2108283944    0.0417949520   -0.0071158336          0.4383
H283       H    0.2607982060    0.0381817546   -0.0069472722          0.4411
N284       N    0.3074587926    0.0108083463    0.0005766588          0.4466
C285       C    0.3373848337   -0.0008703600   -0.0062159955         -0.5426
O286       O    0.3614331587    0.0179452095    0.0021520309          0.4442
C287       C    0.3781907685   -0.0297794773    0.0128578915         -0.5462
C288       C    0.3449611401   -0.0298869435    0.0099394886         -0.5448
H289       H    0.3354495806   -0.0303849616    0.0319746558           0.437
H290       H    0.3839456253   -0.0315384825    0.0360810320          0.4355
H291       H    0.3881051079   -0.0479804983    0.0008379548         -0.5292
H292       H    0.3372392065   -0.0489511575   -0.0023657617         -0.5277
H293       H    0.3929706784   -0.0026201497   -0.0232542487         -0.5262
C294       C    0.3876168268   -0.0000000000    0.0000000000         -0.5465
H295       H    0.3390169409   -0.0040131383   -0.0301192141         -0.5217
C296       C    0.2412339787   -0.0811116091    0.0392816159          0.4471
H297       H    0.2236250135   -0.0902498957    0.0258328360          -0.539
H298       H    0.2317546584   -0.0705214836    0.0585888829           0.427
H299       H    0.2548992683   -0.0993545324    0.0467110940          0.4482
H300       H    0.2677986200   -0.0700609370    0.0016965785         -0.5253
H301       H    0.2793561914   -0.0551358173    0.0351964324          0.4419
C224       C   -0.0000000000    0.0000000000   -0.3876168268          0.4451
C225       C   -0.0084758406    0.0244076900   -0.3740910744          0.4451
C226       C   -0.0075283265    0.0263894227   -0.3449817745          0.4446
C227       C    0.0019602974    0.0042009780   -0.3277036504           0.444
C228       C    0.0109997629   -0.0200372630   -0.3420190031          0.4435
C229       C    0.0099622867   -0.0221490569   -0.3710620499          0.4441
C230       C    0.0020356506    0.0056952731   -0.2979070274          0.4444
H231       H   -0.0148128017    0.0473768053   -0.3367095434          0.4444
H232       H   -0.0165653913    0.0430808340   -0.3865740455          0.4457
H233       H    0.0173408951   -0.0427471231   -0.3805593419           0.444
H234       H    0.0188476507   -0.0395345496   -0.3310385006          0.4432
C235       C   -0.0101655766    0.0284211769   -0.2835958244           0.448
C236       C   -0.0115897963    0.0303694570   -0.2544033191         -0.5505
C237       C   -0.0003180514    0.0087445623   -0.2377396449          0.4472
C238       C    0.0124539998   -0.0138875569   -0.2514817955          0.4431
C239       C    0.0135252390   -0.0153827802   -0.2806255622          0.4417
N240       N   -0.0036851143    0.0115432544   -0.2096036140         -0.5499
C241       C   -0.0262869004    0.0572720094   -0.2399683530          -0.546
H242       H   -0.0204594110    0.0459747794   -0.2953690608         -0.5491
H243       H    0.0243501602   -0.0347062357   -0.2891716056          0.4383
H244       H    0.0219277156   -0.0320200916   -0.2392017940          0.4411
N245       N    0.0080144647   -0.0072746988   -0.1925412074          0.4466
C246       C   -0.0050294791   -0.0037550588   -0.1626151663         -0.5426
O247       O    0.0141553828   -0.0112377453   -0.1385668413          0.4442
C248       C   -0.0118158241    0.0302080941   -0.1218092315         -0.5462
C249       C   -0.0139652596    0.0282310884   -0.1550388599         -0.5448
H250       H    0.0013425716    0.0440887968   -0.1645504194           0.437
H251       H    0.0034489602    0.0477977135   -0.1160543747          0.4355
H252       H   -0.0331633480    0.0346846182   -0.1118948921         -0.5292
H253       H   -0.0361228655    0.0331202542   -0.1627607935         -0.5277
H254       H   -0.0183680378   -0.0144996709   -0.1070293216         -0.5262
C255       C    0.0000000000   -0.0000000000   -0.1123831732         -0.5465
H256       H   -0.0242263946   -0.0183399602   -0.1609830591         -0.5217
C257       C   -0.0291560629    0.0852763887   -0.2587660213          0.4471
H258       H   -0.0451424382    0.0823075899   -0.2763749865          -0.539
H259       H   -0.0079851295    0.0913355054   -0.2682453416           0.427
H260       H   -0.0367122760    0.1034671842   -0.2451007317          0.4482
H261       H   -0.0480888769    0.0509791447   -0.2322013800         -0.5253
H262       H   -0.0137825860    0.0639436277   -0.2206438086          0.4419
C185       C    0.0000000000    0.0000000000    0.3876168268          0.4451
C186       C    0.0076181749   -0.0246888359    0.3740910744          0.4451
C187       C    0.0095549908   -0.0257250749    0.3449817745          0.4446
C188       C    0.0040668412   -0.0022252605    0.3277036504           0.444
C189       C   -0.0029967718    0.0226606719    0.3420190031          0.4435
C190       C   -0.0050830875    0.0237484758    0.3710620499          0.4441
C191       C    0.0050121856   -0.0033849674    0.2979070274          0.4444
H192       H    0.0161085351   -0.0469520593    0.3367095434          0.4444
H193       H    0.0121528589   -0.0445272778    0.3865740455          0.4457
H194       H   -0.0113302926    0.0447174199    0.3805593419           0.444
H195       H   -0.0082141097    0.0430202621    0.3310385006          0.4432
C196       C    0.0086323065   -0.0289237882    0.2835958244           0.448
C197       C    0.0086378385   -0.0313371193    0.2544033191         -0.5505
C198       C    0.0049203997   -0.0072358962    0.2377396449          0.4472
C199       C    0.0018158498    0.0185652643    0.2514817955          0.4431
C200       C    0.0017940430    0.0204044952    0.2806255622          0.4417
N201       N    0.0038635513   -0.0114847622    0.2096036140         -0.5499
C202       C    0.0127189789   -0.0617196222    0.2399683530          -0.546
H203       H    0.0107277031   -0.0491648678    0.2953690608         -0.5491
H204       H   -0.0009210711    0.0423863743    0.2891716056          0.4383
H205       H   -0.0012832395    0.0387874242    0.2392017940          0.4411
N206       N    0.0021526152    0.0106075037    0.1925412074          0.4466
C207       C   -0.0062764426    0.0000489376    0.1626151663         -0.5426
O208       O    0.0047557393    0.0174368783    0.1385668413          0.4442
C209       C    0.0083601472   -0.0313408772    0.1218092315         -0.5462
C210       C    0.0054574504   -0.0310199784    0.1550388599         -0.5448
H211       H    0.0271823497   -0.0347382263    0.1645504194           0.437
H212       H    0.0310756345   -0.0364804288    0.1160543747          0.4355
H213       H   -0.0061946461   -0.0475863084    0.1118948921         -0.5292
H214       H   -0.0095059406   -0.0480775389    0.1627607935         -0.5277
H215       H   -0.0233872984    0.0008121235    0.1070293216         -0.5262
C216       C   -0.0000000000   -0.0000000000    0.1123831732         -0.5465
H217       H   -0.0303822244    0.0004390610    0.1609830591         -0.5217
C218       C    0.0269850316   -0.0859880605    0.2587660213          0.4471
H219       H    0.0123434256   -0.0930592227    0.2763749865          -0.539
H220       H    0.0476345421   -0.0783382872    0.2682453416           0.427
H221       H    0.0316640073   -0.1051220246    0.2451007317          0.4482
H222       H   -0.0085774932   -0.0695545821    0.2322013800         -0.5253
H223       H    0.0267462931   -0.0596940785    0.2206438086          0.4419
loop_
_geom_bond_atom_site_label_1
_geom_bond_atom_site_label_2
_geom_bond_distance
_geom_bond_site_symmetry_2
_ccdc_geom_bond_type
Zn1          O5 1.942       .   S
Zn1          O6 1.922       .   S
Zn1         O10 1.922       .   S
Zn1         O17 1.922       .   S
Zn2          O5 1.942       .   S
Zn2          O7 1.922       .   S
Zn2          O9 1.922       .   S
Zn2         O13 1.922       .   S
Zn3          O5 1.942       .   S
Zn3          O8 1.922       .   S
Zn3         O11 1.922       .   S
Zn3         O14 1.922       .   S
Zn4          O5 1.942       .   S
Zn4         O12 1.922       .   S
Zn4         O15 1.922       .   S
Zn4         O16 1.922       .   S
O6          C18 1.304       .   A
O7          C19 1.304       .   A
O8          C20 1.304       .   A
O9          C18 1.304       .   A
O10         C20 1.304       .   A
O11         C19 1.304       .   A
O12         C21 1.304       .   A
O13         C22 1.304       .   A
O14         C21 1.304       .   A
O15         C22 1.304       .   A
O16         C23 1.304       .   A
O17         C23 1.304       .   A
C18        C216 1.540       .   S
C19        C263 1.540       .   S
C20        C411 1.540       .   S
C21        C255 1.540       .   S
C22        C372 1.540       .   S
C23        C302 1.540       .   S
Zn24        O28 1.942       .   S
Zn24        O29 1.922       .   S
Zn24        O33 1.922       .   S
Zn24        O40 1.922       .   S
Zn25        O28 1.942       .   S
Zn25        O30 1.922       .   S
Zn25        O32 1.922       .   S
Zn25        O36 1.922       .   S
Zn26        O28 1.942       .   S
Zn26        O31 1.922       .   S
Zn26        O34 1.922       .   S
Zn26        O37 1.922       .   S
Zn27        O28 1.942       .   S
Zn27        O35 1.922       .   S
Zn27        O38 1.922       .   S
Zn27        O39 1.922       .   S
O29         C41 1.304       .   A
O30         C42 1.304       .   A
O31         C43 1.304       .   A
O32         C41 1.304       .   A
O33         C43 1.304       .   A
O34         C42 1.304       .   A
O35         C44 1.304       .   A
O36         C45 1.304       .   A
O37         C44 1.304       .   A
O38         C45 1.304       .   A
O39         C46 1.304       .   A
O40         C46 1.304       .   A
C41        C567 1.540       .   S
C42        C419 1.540       .   S
C43        C185 1.540   1_655   S
C44        C497 1.540       .   S
C45        C224 1.540   1_656   S
C46        C458 1.540       .   S
Zn47        O51 1.942       .   S
Zn47        O52 1.922       .   S
Zn47        O56 1.922       .   S
Zn47        O63 1.922       .   S
Zn48        O51 1.942       .   S
Zn48        O53 1.922       .   S
Zn48        O55 1.922       .   S
Zn48        O59 1.922       .   S
Zn49        O51 1.942       .   S
Zn49        O54 1.922       .   S
Zn49        O57 1.922       .   S
Zn49        O60 1.922       .   S
Zn50        O51 1.942       .   S
Zn50        O58 1.922       .   S
Zn50        O61 1.922       .   S
Zn50        O62 1.922       .   S
O52         C64 1.304       .   A
O53         C65 1.304       .   A
O54         C66 1.304       .   A
O55         C64 1.304       .   A
O56         C66 1.304       .   A
O57         C65 1.304       .   A
O58         C67 1.304       .   A
O59         C68 1.304       .   A
O60         C67 1.304       .   A
O61         C68 1.304       .   A
O62         C69 1.304       .   A
O63         C69 1.304       .   A
C64        C341 1.540   1_655   S
C65        C653 1.540       .   S
C66        C614 1.540       .   S
C67        C380 1.540   1_665   S
C68        C606 1.540       .   S
C69        C692 1.540       .   S
Zn70        O74 1.942       .   S
Zn70        O75 1.922       .   S
Zn70        O79 1.922       .   S
Zn70        O86 1.922       .   S
Zn71        O74 1.942       .   S
Zn71        O76 1.922       .   S
Zn71        O78 1.922       .   S
Zn71        O82 1.922       .   S
Zn72        O74 1.942       .   S
Zn72        O77 1.922       .   S
Zn72        O80 1.922       .   S
Zn72        O83 1.922       .   S
Zn73        O74 1.942       .   S
Zn73        O81 1.922       .   S
Zn73        O84 1.922       .   S
Zn73        O85 1.922       .   S
O75         C87 1.304       .   A
O76         C88 1.304       .   A
O77         C89 1.304       .   A
O78         C87 1.304       .   A
O79         C89 1.304       .   A
O80         C88 1.304       .   A
O81         C90 1.304       .   A
O82         C91 1.304       .   A
O83         C90 1.304       .   A
O84         C91 1.304       .   A
O85         C92 1.304       .   A
O86         C92 1.304       .   A
C87        C528 1.540       .   S
C88        C731 1.540       .   S
C89        C575 1.540       .   S
C90        C536 1.540   1_565   S
C91        C645 1.540   1_556   S
C92        C770 1.540       .   S
Zn93        O97 1.942       .   S
Zn93        O98 1.922       .   S
Zn93       O102 1.922       .   S
Zn93       O109 1.922       .   S
Zn94        O97 1.942       .   S
Zn94        O99 1.922       .   S
Zn94       O101 1.922       .   S
Zn94       O105 1.922       .   S
Zn95        O97 1.942       .   S
Zn95       O100 1.922       .   S
Zn95       O103 1.922       .   S
Zn95       O106 1.922       .   S
Zn96        O97 1.942       .   S
Zn96       O104 1.922       .   S
Zn96       O107 1.922       .   S
Zn96       O108 1.922       .   S
O98        C110 1.304       .   A
O99        C111 1.304       .   A
O100       C112 1.304       .   A
O101       C110 1.304       .   A
O102       C112 1.304       .   A
O103       C111 1.304       .   A
O104       C113 1.304       .   A
O105       C114 1.304       .   A
O106       C113 1.304       .   A
O107       C114 1.304       .   A
O108       C115 1.304       .   A
O109       C115 1.304       .   A
C110       C294 1.540   1_565   S
C111       C809 1.540       .   S
C112       C957 1.540       .   S
C113       C333 1.540   1_665   S
C114       C887 1.540       .   S
C115       C879 1.540       .   S
Zn116      O120 1.942       .   S
Zn116      O121 1.922       .   S
Zn116      O125 1.922       .   S
Zn116      O132 1.922       .   S
Zn117      O120 1.942       .   S
Zn117      O122 1.922       .   S
Zn117      O124 1.922       .   S
Zn117      O128 1.922       .   S
Zn118      O120 1.942       .   S
Zn118      O123 1.922       .   S
Zn118      O126 1.922       .   S
Zn118      O129 1.922       .   S
Zn119      O120 1.942       .   S
Zn119      O127 1.922       .   S
Zn119      O130 1.922       .   S
Zn119      O131 1.922       .   S
O121       C133 1.304       .   A
O122       C134 1.304       .   A
O123       C135 1.304       .   A
O124       C133 1.304       .   A
O125       C135 1.304       .   A
O126       C134 1.304       .   A
O127       C136 1.304       .   A
O128       C137 1.304       .   A
O129       C136 1.304       .   A
O130       C137 1.304       .   A
O131       C138 1.304       .   A
O132       C138 1.304       .   A
C133       C450 1.540   1_465   S
C134       C840 1.540       .   S
C135       C965 1.540       .   S
C136       C489 1.540   1_565   S
C137      C1004 1.540       .   S
C138       C848 1.540   1_556   S
Zn139      O143 1.942       .   S
Zn139      O144 1.922       .   S
Zn139      O148 1.922       .   S
Zn139      O155 1.922       .   S
Zn140      O143 1.942       .   S
Zn140      O145 1.922       .   S
Zn140      O147 1.922       .   S
Zn140      O151 1.922       .   S
Zn141      O143 1.942       .   S
Zn141      O146 1.922       .   S
Zn141      O149 1.922       .   S
Zn141      O152 1.922       .   S
Zn142      O143 1.942       .   S
Zn142      O150 1.922       .   S
Zn142      O153 1.922       .   S
Zn142      O154 1.922       .   S
O144       C156 1.304       .   A
O145       C157 1.304       .   A
O146       C158 1.304       .   A
O147       C156 1.304       .   A
O148       C158 1.304       .   A
O149       C157 1.304       .   A
O150       C159 1.304       .   A
O151       C160 1.304       .   A
O152       C159 1.304       .   A
O153       C160 1.304       .   A
O154       C161 1.304       .   A
O155       C161 1.304       .   A
C156       C926 1.540       .   S
C157      C1043 1.540       .   S
C158       C684 1.540   1_455   S
C159       C918 1.540   1_545   S
C160       C723 1.540       .   S
C161      C1082 1.540       .   S
Zn162      O166 1.942       .   S
Zn162      O167 1.922       .   S
Zn162      O171 1.922       .   S
Zn162      O178 1.922       .   S
Zn163      O166 1.942       .   S
Zn163      O168 1.922       .   S
Zn163      O170 1.922       .   S
Zn163      O174 1.922       .   S
Zn164      O166 1.942       .   S
Zn164      O169 1.922       .   S
Zn164      O172 1.922       .   S
Zn164      O175 1.922       .   S
Zn165      O166 1.942       .   S
Zn165      O173 1.922       .   S
Zn165      O176 1.922       .   S
Zn165      O177 1.922       .   S
O167       C179 1.304       .   A
O168       C180 1.304       .   A
O169       C181 1.304       .   A
O170       C179 1.304       .   A
O171       C181 1.304       .   A
O172       C180 1.304       .   A
O173       C182 1.304       .   A
O174       C183 1.304       .   A
O175       C182 1.304       .   A
O176       C183 1.304       .   A
O177       C184 1.304       .   A
O178       C184 1.304       .   A
C179       C762 1.540   1_455   S
C180       C996 1.540   1_545   S
C181      C1074 1.540       .   S
C182       C801 1.540       .   S
C183      C1113 1.540   1_556   S
C184      C1035 1.540       .   S
C1082     C1083 0.026       .   A
C1082     C1087 0.027       .   A
C1083     C1084 0.026       .   A
C1083     H1090 0.022       .   A
C1084     C1085 0.027       .   A
C1084     H1089 0.021       .   A
C1085     C1086 0.027       .   A
C1085     C1088 0.027       .   A
C1086     C1087 0.026       .   A
C1086     H1092 0.021       .   A
C1087     H1091 0.022       .   A
C1088     C1093 0.027       .   A
C1088     C1097 0.027       .   A
C1093     C1094 0.026       .   A
C1093     H1100 0.021       .   A
C1094     C1095 0.027       .   A
C1094     C1099 0.031       .   A
C1095     C1096 0.027       .   A
C1095     N1098 0.026       .   A
C1096     C1097 0.026       .   A
C1096     H1102 0.022       .   A
C1097     H1101 0.021       .   A
N1098     N1103 0.025       .   A
C1099     C1115 0.031       .   A
C1099     H1119 0.022       .   A
C1099     H1120 0.022       .   A
N1103     C1104 0.030       .   A
C1104     O1105 0.029       .   A
C1104     C1107 0.031       .   A
C1104     H1114 0.022       .   A
O1105     C1113 0.029       .   A
C1106     C1107 0.030       .   A
C1106     H1109 0.022       .   A
C1106     H1110 0.022       .   A
C1106     C1113 0.031       .   A
C1107     H1108 0.022       .   A
C1107     H1111 0.022       .   A
H1112     C1113 0.022       .   A
C1115     H1116 0.022       .   A
C1115     H1117 0.022       .   A
C1115     H1118 0.022       .   A
C1043     C1044 0.026       .   A
C1043     C1048 0.027       .   A
C1044     C1045 0.026       .   A
C1044     H1051 0.022       .   A
C1045     C1046 0.027       .   A
C1045     H1050 0.021       .   A
C1046     C1047 0.027       .   A
C1046     C1049 0.027       .   A
C1047     C1048 0.026       .   A
C1047     H1053 0.021       .   A
C1048     H1052 0.022       .   A
C1049     C1054 0.027       .   A
C1049     C1058 0.027       .   A
C1054     C1055 0.026       .   A
C1054     H1061 0.021       .   A
C1055     C1056 0.027       .   A
C1055     C1060 0.031       .   A
C1056     C1057 0.027       .   A
C1056     N1059 0.026       .   A
C1057     C1058 0.026       .   A
C1057     H1063 0.022       .   A
C1058     H1062 0.021       .   A
N1059     N1064 0.025       .   A
C1060     C1076 0.031       .   A
C1060     H1080 0.022       .   A
C1060     H1081 0.022       .   A
N1064     C1065 0.030       .   A
C1065     O1066 0.029       .   A
C1065     C1068 0.031       .   A
C1065     H1075 0.022       .   A
O1066     C1074 0.029       .   A
C1067     C1068 0.030       .   A
C1067     H1070 0.022       .   A
C1067     H1071 0.022       .   A
C1067     C1074 0.031       .   A
C1068     H1069 0.022       .   A
C1068     H1072 0.022       .   A
H1073     C1074 0.022       .   A
C1076     H1077 0.022       .   A
C1076     H1078 0.022       .   A
C1076     H1079 0.022       .   A
C1004     C1005 0.026       .   A
C1004     C1009 0.027       .   A
C1005     C1006 0.026       .   A
C1005     H1012 0.022       .   A
C1006     C1007 0.027       .   A
C1006     H1011 0.021       .   A
C1007     C1008 0.027       .   A
C1007     C1010 0.027       .   A
C1008     C1009 0.026       .   A
C1008     H1014 0.021       .   A
C1009     H1013 0.022       .   A
C1010     C1015 0.027       .   A
C1010     C1019 0.027       .   A
C1015     C1016 0.026       .   A
C1015     H1022 0.021       .   A
C1016     C1017 0.027       .   A
C1016     C1021 0.031       .   A
C1017     C1018 0.027       .   A
C1017     N1020 0.026       .   A
C1018     C1019 0.026       .   A
C1018     H1024 0.022       .   A
C1019     H1023 0.021       .   A
N1020     N1025 0.025       .   A
C1021     C1037 0.031       .   A
C1021     H1041 0.022       .   A
C1021     H1042 0.022       .   A
N1025     C1026 0.030       .   A
C1026     O1027 0.029       .   A
C1026     C1029 0.031       .   A
C1026     H1036 0.022       .   A
O1027     C1035 0.029       .   A
C1028     C1029 0.030       .   A
C1028     H1031 0.022       .   A
C1028     H1032 0.022       .   A
C1028     C1035 0.031       .   A
C1029     H1030 0.022       .   A
C1029     H1033 0.022       .   A
H1034     C1035 0.022       .   A
C1037     H1038 0.022       .   A
C1037     H1039 0.022       .   A
C1037     H1040 0.022       .   A
C965       C966 0.026       .   A
C965       C970 0.027       .   A
C966       C967 0.026       .   A
C966       H973 0.022       .   A
C967       C968 0.027       .   A
C967       H972 0.021       .   A
C968       C969 0.027       .   A
C968       C971 0.027       .   A
C969       C970 0.026       .   A
C969       H975 0.021       .   A
C970       H974 0.022       .   A
C971       C976 0.027       .   A
C971       C980 0.027       .   A
C976       C977 0.026       .   A
C976       H983 0.021       .   A
C977       C978 0.027       .   A
C977       C982 0.031       .   A
C978       C979 0.027       .   A
C978       N981 0.026       .   A
C979       C980 0.026       .   A
C979       H985 0.022       .   A
C980       H984 0.021       .   A
N981       N986 0.025       .   A
C982       C998 0.031       .   A
C982      H1002 0.022       .   A
C982      H1003 0.022       .   A
N986       C987 0.030       .   A
C987       O988 0.029       .   A
C987       C990 0.031       .   A
C987       H997 0.022       .   A
O988       C996 0.029       .   A
C989       C990 0.030       .   A
C989       H992 0.022       .   A
C989       H993 0.022       .   A
C989       C996 0.031       .   A
C990       H991 0.022       .   A
C990       H994 0.022       .   A
H995       C996 0.022       .   A
C998       H999 0.022       .   A
C998      H1000 0.022       .   A
C998      H1001 0.022       .   A
C926       C927 0.026       .   A
C926       C931 0.027       .   A
C927       C928 0.026       .   A
C927       H934 0.022       .   A
C928       C929 0.027       .   A
C928       H933 0.021       .   A
C929       C930 0.027       .   A
C929       C932 0.027       .   A
C930       C931 0.026       .   A
C930       H936 0.021       .   A
C931       H935 0.022       .   A
C932       C937 0.027       .   A
C932       C941 0.027       .   A
C937       C938 0.026       .   A
C937       H944 0.021       .   A
C938       C939 0.027       .   A
C938       C943 0.031       .   A
C939       C940 0.027       .   A
C939       N942 0.026       .   A
C940       C941 0.026       .   A
C940       H946 0.022       .   A
C941       H945 0.021       .   A
N942       N947 0.025       .   A
C943       C959 0.031       .   A
C943       H963 0.022       .   A
C943       H964 0.022       .   A
N947       C948 0.030       .   A
C948       O949 0.029       .   A
C948       C951 0.031       .   A
C948       H958 0.022       .   A
O949       C957 0.029       .   A
C950       C951 0.030       .   A
C950       H953 0.022       .   A
C950       H954 0.022       .   A
C950       C957 0.031       .   A
C951       H952 0.022       .   A
C951       H955 0.022       .   A
H956       C957 0.022       .   A
C959       H960 0.022       .   A
C959       H961 0.022       .   A
C959       H962 0.022       .   A
C887       C888 0.026       .   A
C887       C892 0.027       .   A
C888       C889 0.026       .   A
C888       H895 0.022       .   A
C889       C890 0.027       .   A
C889       H894 0.021       .   A
C890       C891 0.027       .   A
C890       C893 0.027       .   A
C891       C892 0.026       .   A
C891       H897 0.021       .   A
C892       H896 0.022       .   A
C893       C898 0.027       .   A
C893       C902 0.027       .   A
C898       C899 0.026       .   A
C898       H905 0.021       .   A
C899       C900 0.027       .   A
C899       C904 0.031       .   A
C900       C901 0.027       .   A
C900       N903 0.026       .   A
C901       C902 0.026       .   A
C901       H907 0.022       .   A
C902       H906 0.021       .   A
N903       N908 0.025       .   A
C904       C920 0.031       .   A
C904       H924 0.022       .   A
C904       H925 0.022       .   A
N908       C909 0.030       .   A
C909       O910 0.029       .   A
C909       C912 0.031       .   A
C909       H919 0.022       .   A
O910       C918 0.029       .   A
C911       C912 0.030       .   A
C911       H914 0.022       .   A
C911       H915 0.022       .   A
C911       C918 0.031       .   A
C912       H913 0.022       .   A
C912       H916 0.022       .   A
H917       C918 0.022       .   A
C920       H921 0.022       .   A
C920       H922 0.022       .   A
C920       H923 0.022       .   A
C848       C849 0.026       .   A
C848       C853 0.027       .   A
C849       C850 0.026       .   A
C849       H856 0.022       .   A
C850       C851 0.027       .   A
C850       H855 0.021       .   A
C851       C852 0.027       .   A
C851       C854 0.027       .   A
C852       C853 0.026       .   A
C852       H858 0.021       .   A
C853       H857 0.022       .   A
C854       C859 0.027       .   A
C854       C863 0.027       .   A
C859       C860 0.026       .   A
C859       H866 0.021       .   A
C860       C861 0.027       .   A
C860       C865 0.031       .   A
C861       C862 0.027       .   A
C861       N864 0.026       .   A
C862       C863 0.026       .   A
C862       H868 0.022       .   A
C863       H867 0.021       .   A
N864       N869 0.025       .   A
C865       C881 0.031       .   A
C865       H885 0.022       .   A
C865       H886 0.022       .   A
N869       C870 0.030       .   A
C870       O871 0.029       .   A
C870       C873 0.031       .   A
C870       H880 0.022       .   A
O871       C879 0.029       .   A
C872       C873 0.030       .   A
C872       H875 0.022       .   A
C872       H876 0.022       .   A
C872       C879 0.031       .   A
C873       H874 0.022       .   A
C873       H877 0.022       .   A
H878       C879 0.022       .   A
C881       H882 0.022       .   A
C881       H883 0.022       .   A
C881       H884 0.022       .   A
C809       C810 0.026       .   A
C809       C814 0.027       .   A
C810       C811 0.026       .   A
C810       H817 0.022       .   A
C811       C812 0.027       .   A
C811       H816 0.021       .   A
C812       C813 0.027       .   A
C812       C815 0.027       .   A
C813       C814 0.026       .   A
C813       H819 0.021       .   A
C814       H818 0.022       .   A
C815       C820 0.027       .   A
C815       C824 0.027       .   A
C820       C821 0.026       .   A
C820       H827 0.021       .   A
C821       C822 0.027       .   A
C821       C826 0.031       .   A
C822       C823 0.027       .   A
C822       N825 0.026       .   A
C823       C824 0.026       .   A
C823       H829 0.022       .   A
C824       H828 0.021       .   A
N825       N830 0.025       .   A
C826       C842 0.031       .   A
C826       H846 0.022       .   A
C826       H847 0.022       .   A
N830       C831 0.030       .   A
C831       O832 0.029       .   A
C831       C834 0.031       .   A
C831       H841 0.022       .   A
O832       C840 0.029       .   A
C833       C834 0.030       .   A
C833       H836 0.022       .   A
C833       H837 0.022       .   A
C833       C840 0.031       .   A
C834       H835 0.022       .   A
C834       H838 0.022       .   A
H839       C840 0.022       .   A
C842       H843 0.022       .   A
C842       H844 0.022       .   A
C842       H845 0.022       .   A
C770       C771 0.026       .   A
C770       C775 0.027       .   A
C771       C772 0.026       .   A
C771       H778 0.022       .   A
C772       C773 0.027       .   A
C772       H777 0.021       .   A
C773       C774 0.027       .   A
C773       C776 0.027       .   A
C774       C775 0.026       .   A
C774       H780 0.021       .   A
C775       H779 0.022       .   A
C776       C781 0.027       .   A
C776       C785 0.027       .   A
C781       C782 0.026       .   A
C781       H788 0.021       .   A
C782       C783 0.027       .   A
C782       C787 0.031       .   A
C783       C784 0.027       .   A
C783       N786 0.026       .   A
C784       C785 0.026       .   A
C784       H790 0.022       .   A
C785       H789 0.021       .   A
N786       N791 0.025       .   A
C787       C803 0.031       .   A
C787       H807 0.022       .   A
C787       H808 0.022       .   A
N791       C792 0.030       .   A
C792       O793 0.029       .   A
C792       C795 0.031       .   A
C792       H802 0.022       .   A
O793       C801 0.029       .   A
C794       C795 0.030       .   A
C794       H797 0.022       .   A
C794       H798 0.022       .   A
C794       C801 0.031       .   A
C795       H796 0.022       .   A
C795       H799 0.022       .   A
H800       C801 0.022       .   A
C803       H804 0.022       .   A
C803       H805 0.022       .   A
C803       H806 0.022       .   A
C731       C732 0.026       .   A
C731       C736 0.027       .   A
C732       C733 0.026       .   A
C732       H739 0.022       .   A
C733       C734 0.027       .   A
C733       H738 0.021       .   A
C734       C735 0.027       .   A
C734       C737 0.027       .   A
C735       C736 0.026       .   A
C735       H741 0.021       .   A
C736       H740 0.022       .   A
C737       C742 0.027       .   A
C737       C746 0.027       .   A
C742       C743 0.026       .   A
C742       H749 0.021       .   A
C743       C744 0.027       .   A
C743       C748 0.031       .   A
C744       C745 0.027       .   A
C744       N747 0.026       .   A
C745       C746 0.026       .   A
C745       H751 0.022       .   A
C746       H750 0.021       .   A
N747       N752 0.025       .   A
C748       C764 0.031       .   A
C748       H768 0.022       .   A
C748       H769 0.022       .   A
N752       C753 0.030       .   A
C753       O754 0.029       .   A
C753       C756 0.031       .   A
C753       H763 0.022       .   A
O754       C762 0.029       .   A
C755       C756 0.030       .   A
C755       H758 0.022       .   A
C755       H759 0.022       .   A
C755       C762 0.031       .   A
C756       H757 0.022       .   A
C756       H760 0.022       .   A
H761       C762 0.022       .   A
C764       H765 0.022       .   A
C764       H766 0.022       .   A
C764       H767 0.022       .   A
C692       C693 0.026       .   A
C692       C697 0.027       .   A
C693       C694 0.026       .   A
C693       H700 0.022       .   A
C694       C695 0.027       .   A
C694       H699 0.021       .   A
C695       C696 0.027       .   A
C695       C698 0.027       .   A
C696       C697 0.026       .   A
C696       H702 0.021       .   A
C697       H701 0.022       .   A
C698       C703 0.027       .   A
C698       C707 0.027       .   A
C703       C704 0.026       .   A
C703       H710 0.021       .   A
C704       C705 0.027       .   A
C704       C709 0.031       .   A
C705       C706 0.027       .   A
C705       N708 0.026       .   A
C706       C707 0.026       .   A
C706       H712 0.022       .   A
C707       H711 0.021       .   A
N708       N713 0.025       .   A
C709       C725 0.031       .   A
C709       H729 0.022       .   A
C709       H730 0.022       .   A
N713       C714 0.030       .   A
C714       O715 0.029       .   A
C714       C717 0.031       .   A
C714       H724 0.022       .   A
O715       C723 0.029       .   A
C716       C717 0.030       .   A
C716       H719 0.022       .   A
C716       H720 0.022       .   A
C716       C723 0.031       .   A
C717       H718 0.022       .   A
C717       H721 0.022       .   A
H722       C723 0.022       .   A
C725       H726 0.022       .   A
C725       H727 0.022       .   A
C725       H728 0.022       .   A
C653       C654 0.026       .   A
C653       C658 0.027       .   A
C654       C655 0.026       .   A
C654       H661 0.022       .   A
C655       C656 0.027       .   A
C655       H660 0.021       .   A
C656       C657 0.027       .   A
C656       C659 0.027       .   A
C657       C658 0.026       .   A
C657       H663 0.021       .   A
C658       H662 0.022       .   A
C659       C664 0.027       .   A
C659       C668 0.027       .   A
C664       C665 0.026       .   A
C664       H671 0.021       .   A
C665       C666 0.027       .   A
C665       C670 0.031       .   A
C666       C667 0.027       .   A
C666       N669 0.026       .   A
C667       C668 0.026       .   A
C667       H673 0.022       .   A
C668       H672 0.021       .   A
N669       N674 0.025       .   A
C670       C686 0.031       .   A
C670       H690 0.022       .   A
C670       H691 0.022       .   A
N674       C675 0.030       .   A
C675       O676 0.029       .   A
C675       C678 0.031       .   A
C675       H685 0.022       .   A
O676       C684 0.029       .   A
C677       C678 0.030       .   A
C677       H680 0.022       .   A
C677       H681 0.022       .   A
C677       C684 0.031       .   A
C678       H679 0.022       .   A
C678       H682 0.022       .   A
H683       C684 0.022       .   A
C686       H687 0.022       .   A
C686       H688 0.022       .   A
C686       H689 0.022       .   A
C614       C615 0.026       .   A
C614       C619 0.027       .   A
C615       C616 0.026       .   A
C615       H622 0.022       .   A
C616       C617 0.027       .   A
C616       H621 0.021       .   A
C617       C618 0.027       .   A
C617       C620 0.027       .   A
C618       C619 0.026       .   A
C618       H624 0.021       .   A
C619       H623 0.022       .   A
C620       C625 0.027       .   A
C620       C629 0.027       .   A
C625       C626 0.026       .   A
C625       H632 0.021       .   A
C626       C627 0.027       .   A
C626       C631 0.031       .   A
C627       C628 0.027       .   A
C627       N630 0.026       .   A
C628       C629 0.026       .   A
C628       H634 0.022       .   A
C629       H633 0.021       .   A
N630       N635 0.025       .   A
C631       C647 0.031       .   A
C631       H651 0.022       .   A
C631       H652 0.022       .   A
N635       C636 0.030       .   A
C636       O637 0.029       .   A
C636       C639 0.031       .   A
C636       H646 0.022       .   A
O637       C645 0.029       .   A
C638       C639 0.030       .   A
C638       H641 0.022       .   A
C638       H642 0.022       .   A
C638       C645 0.031       .   A
C639       H640 0.022       .   A
C639       H643 0.022       .   A
H644       C645 0.022       .   A
C647       H648 0.022       .   A
C647       H649 0.022       .   A
C647       H650 0.022       .   A
C575       C576 0.026       .   A
C575       C580 0.027       .   A
C576       C577 0.026       .   A
C576       H583 0.022       .   A
C577       C578 0.027       .   A
C577       H582 0.021       .   A
C578       C579 0.027       .   A
C578       C581 0.027       .   A
C579       C580 0.026       .   A
C579       H585 0.021       .   A
C580       H584 0.022       .   A
C581       C586 0.027       .   A
C581       C590 0.027       .   A
C586       C587 0.026       .   A
C586       H593 0.021       .   A
C587       C588 0.027       .   A
C587       C592 0.031       .   A
C588       C589 0.027       .   A
C588       N591 0.026       .   A
C589       C590 0.026       .   A
C589       H595 0.022       .   A
C590       H594 0.021       .   A
N591       N596 0.025       .   A
C592       C608 0.031       .   A
C592       H612 0.022       .   A
C592       H613 0.022       .   A
N596       C597 0.030       .   A
C597       O598 0.029       .   A
C597       C600 0.031       .   A
C597       H607 0.022       .   A
O598       C606 0.029       .   A
C599       C600 0.030       .   A
C599       H602 0.022       .   A
C599       H603 0.022       .   A
C599       C606 0.031       .   A
C600       H601 0.022       .   A
C600       H604 0.022       .   A
H605       C606 0.022       .   A
C608       H609 0.022       .   A
C608       H610 0.022       .   A
C608       H611 0.022       .   A
C536       C537 0.026       .   A
C536       C541 0.027       .   A
C537       C538 0.026       .   A
C537       H544 0.022       .   A
C538       C539 0.027       .   A
C538       H543 0.021       .   A
C539       C540 0.027       .   A
C539       C542 0.027       .   A
C540       C541 0.026       .   A
C540       H546 0.021       .   A
C541       H545 0.022       .   A
C542       C547 0.027       .   A
C542       C551 0.027       .   A
C547       C548 0.026       .   A
C547       H554 0.021       .   A
C548       C549 0.027       .   A
C548       C553 0.031       .   A
C549       C550 0.027       .   A
C549       N552 0.026       .   A
C550       C551 0.026       .   A
C550       H556 0.022       .   A
C551       H555 0.021       .   A
N552       N557 0.025       .   A
C553       C569 0.031       .   A
C553       H573 0.022       .   A
C553       H574 0.022       .   A
N557       C558 0.030       .   A
C558       O559 0.029       .   A
C558       C561 0.031       .   A
C558       H568 0.022       .   A
O559       C567 0.029       .   A
C560       C561 0.030       .   A
C560       H563 0.022       .   A
C560       H564 0.022       .   A
C560       C567 0.031       .   A
C561       H562 0.022       .   A
C561       H565 0.022       .   A
H566       C567 0.022       .   A
C569       H570 0.022       .   A
C569       H571 0.022       .   A
C569       H572 0.022       .   A
C497       C498 0.026       .   A
C497       C502 0.027       .   A
C498       C499 0.026       .   A
C498       H505 0.022       .   A
C499       C500 0.027       .   A
C499       H504 0.021       .   A
C500       C501 0.027       .   A
C500       C503 0.027       .   A
C501       C502 0.026       .   A
C501       H507 0.021       .   A
C502       H506 0.022       .   A
C503       C508 0.027       .   A
C503       C512 0.027       .   A
C508       C509 0.026       .   A
C508       H515 0.021       .   A
C509       C510 0.027       .   A
C509       C514 0.031       .   A
C510       C511 0.027       .   A
C510       N513 0.026       .   A
C511       C512 0.026       .   A
C511       H517 0.022       .   A
C512       H516 0.021       .   A
N513       N518 0.025       .   A
C514       C530 0.031       .   A
C514       H534 0.022       .   A
C514       H535 0.022       .   A
N518       C519 0.030       .   A
C519       O520 0.029       .   A
C519       C522 0.031       .   A
C519       H529 0.022       .   A
O520       C528 0.029       .   A
C521       C522 0.030       .   A
C521       H524 0.022       .   A
C521       H525 0.022       .   A
C521       C528 0.031       .   A
C522       H523 0.022       .   A
C522       H526 0.022       .   A
H527       C528 0.022       .   A
C530       H531 0.022       .   A
C530       H532 0.022       .   A
C530       H533 0.022       .   A
C458       C459 0.026       .   A
C458       C463 0.027       .   A
C459       C460 0.026       .   A
C459       H466 0.022       .   A
C460       C461 0.027       .   A
C460       H465 0.021       .   A
C461       C462 0.027       .   A
C461       C464 0.027       .   A
C462       C463 0.026       .   A
C462       H468 0.021       .   A
C463       H467 0.022       .   A
C464       C469 0.027       .   A
C464       C473 0.027       .   A
C469       C470 0.026       .   A
C469       H476 0.021       .   A
C470       C471 0.027       .   A
C470       C475 0.031       .   A
C471       C472 0.027       .   A
C471       N474 0.026       .   A
C472       C473 0.026       .   A
C472       H478 0.022       .   A
C473       H477 0.021       .   A
N474       N479 0.025       .   A
C475       C491 0.031       .   A
C475       H495 0.022       .   A
C475       H496 0.022       .   A
N479       C480 0.030       .   A
C480       O481 0.029       .   A
C480       C483 0.031       .   A
C480       H490 0.022       .   A
O481       C489 0.029       .   A
C482       C483 0.030       .   A
C482       H485 0.022       .   A
C482       H486 0.022       .   A
C482       C489 0.031       .   A
C483       H484 0.022       .   A
C483       H487 0.022       .   A
H488       C489 0.022       .   A
C491       H492 0.022       .   A
C491       H493 0.022       .   A
C491       H494 0.022       .   A
C419       C420 0.026       .   A
C419       C424 0.027       .   A
C420       C421 0.026       .   A
C420       H427 0.022       .   A
C421       C422 0.027       .   A
C421       H426 0.021       .   A
C422       C423 0.027       .   A
C422       C425 0.027       .   A
C423       C424 0.026       .   A
C423       H429 0.021       .   A
C424       H428 0.022       .   A
C425       C430 0.027       .   A
C425       C434 0.027       .   A
C430       C431 0.026       .   A
C430       H437 0.021       .   A
C431       C432 0.027       .   A
C431       C436 0.031       .   A
C432       C433 0.027       .   A
C432       N435 0.026       .   A
C433       C434 0.026       .   A
C433       H439 0.022       .   A
C434       H438 0.021       .   A
N435       N440 0.025       .   A
C436       C452 0.031       .   A
C436       H456 0.022       .   A
C436       H457 0.022       .   A
N440       C441 0.030       .   A
C441       O442 0.029       .   A
C441       C444 0.031       .   A
C441       H451 0.022       .   A
O442       C450 0.029       .   A
C443       C444 0.030       .   A
C443       H446 0.022       .   A
C443       H447 0.022       .   A
C443       C450 0.031       .   A
C444       H445 0.022       .   A
C444       H448 0.022       .   A
H449       C450 0.022       .   A
C452       H453 0.022       .   A
C452       H454 0.022       .   A
C452       H455 0.022       .   A
C380       C381 0.026       .   A
C380       C385 0.027       .   A
C381       C382 0.026       .   A
C381       H388 0.022       .   A
C382       C383 0.027       .   A
C382       H387 0.021       .   A
C383       C384 0.027       .   A
C383       C386 0.027       .   A
C384       C385 0.026       .   A
C384       H390 0.021       .   A
C385       H389 0.022       .   A
C386       C391 0.027       .   A
C386       C395 0.027       .   A
C391       C392 0.026       .   A
C391       H398 0.021       .   A
C392       C393 0.027       .   A
C392       C397 0.031       .   A
C393       C394 0.027       .   A
C393       N396 0.026       .   A
C394       C395 0.026       .   A
C394       H400 0.022       .   A
C395       H399 0.021       .   A
N396       N401 0.025       .   A
C397       C413 0.031       .   A
C397       H417 0.022       .   A
C397       H418 0.022       .   A
N401       C402 0.030       .   A
C402       O403 0.029       .   A
C402       C405 0.031       .   A
C402       H412 0.022       .   A
O403       C411 0.029       .   A
C404       C405 0.030       .   A
C404       H407 0.022       .   A
C404       H408 0.022       .   A
C404       C411 0.031       .   A
C405       H406 0.022       .   A
C405       H409 0.022       .   A
H410       C411 0.022       .   A
C413       H414 0.022       .   A
C413       H415 0.022       .   A
C413       H416 0.022       .   A
C341       C342 0.026       .   A
C341       C346 0.027       .   A
C342       C343 0.026       .   A
C342       H349 0.022       .   A
C343       C344 0.027       .   A
C343       H348 0.021       .   A
C344       C345 0.027       .   A
C344       C347 0.027       .   A
C345       C346 0.026       .   A
C345       H351 0.021       .   A
C346       H350 0.022       .   A
C347       C352 0.027       .   A
C347       C356 0.027       .   A
C352       C353 0.026       .   A
C352       H359 0.021       .   A
C353       C354 0.027       .   A
C353       C358 0.031       .   A
C354       C355 0.027       .   A
C354       N357 0.026       .   A
C355       C356 0.026       .   A
C355       H361 0.022       .   A
C356       H360 0.021       .   A
N357       N362 0.025       .   A
C358       C374 0.031       .   A
C358       H378 0.022       .   A
C358       H379 0.022       .   A
N362       C363 0.030       .   A
C363       O364 0.029       .   A
C363       C366 0.031       .   A
C363       H373 0.022       .   A
O364       C372 0.029       .   A
C365       C366 0.030       .   A
C365       H368 0.022       .   A
C365       H369 0.022       .   A
C365       C372 0.031       .   A
C366       H367 0.022       .   A
C366       H370 0.022       .   A
H371       C372 0.022       .   A
C374       H375 0.022       .   A
C374       H376 0.022       .   A
C374       H377 0.022       .   A
C302       C303 0.026       .   A
C302       C307 0.027       .   A
C303       C304 0.026       .   A
C303       H310 0.022       .   A
C304       C305 0.027       .   A
C304       H309 0.021       .   A
C305       C306 0.027       .   A
C305       C308 0.027       .   A
C306       C307 0.026       .   A
C306       H312 0.021       .   A
C307       H311 0.022       .   A
C308       C313 0.027       .   A
C308       C317 0.027       .   A
C313       C314 0.026       .   A
C313       H320 0.021       .   A
C314       C315 0.027       .   A
C314       C319 0.031       .   A
C315       C316 0.027       .   A
C315       N318 0.026       .   A
C316       C317 0.026       .   A
C316       H322 0.022       .   A
C317       H321 0.021       .   A
N318       N323 0.025       .   A
C319       C335 0.031       .   A
C319       H339 0.022       .   A
C319       H340 0.022       .   A
N323       C324 0.030       .   A
C324       O325 0.029       .   A
C324       C327 0.031       .   A
C324       H334 0.022       .   A
O325       C333 0.029       .   A
C326       C327 0.030       .   A
C326       H329 0.022       .   A
C326       H330 0.022       .   A
C326       C333 0.031       .   A
C327       H328 0.022       .   A
C327       H331 0.022       .   A
H332       C333 0.022       .   A
C335       H336 0.022       .   A
C335       H337 0.022       .   A
C335       H338 0.022       .   A
C263       C264 0.026       .   A
C263       C268 0.027       .   A
C264       C265 0.026       .   A
C264       H271 0.022       .   A
C265       C266 0.027       .   A
C265       H270 0.021       .   A
C266       C267 0.027       .   A
C266       C269 0.027       .   A
C267       C268 0.026       .   A
C267       H273 0.021       .   A
C268       H272 0.022       .   A
C269       C274 0.027       .   A
C269       C278 0.027       .   A
C274       C275 0.026       .   A
C274       H281 0.021       .   A
C275       C276 0.027       .   A
C275       C280 0.031       .   A
C276       C277 0.027       .   A
C276       N279 0.026       .   A
C277       C278 0.026       .   A
C277       H283 0.022       .   A
C278       H282 0.021       .   A
N279       N284 0.025       .   A
C280       C296 0.031       .   A
C280       H300 0.022       .   A
C280       H301 0.022       .   A
N284       C285 0.030       .   A
C285       O286 0.029       .   A
C285       C288 0.031       .   A
C285       H295 0.022       .   A
O286       C294 0.029       .   A
C287       C288 0.030       .   A
C287       H290 0.022       .   A
C287       H291 0.022       .   A
C287       C294 0.031       .   A
C288       H289 0.022       .   A
C288       H292 0.022       .   A
H293       C294 0.022       .   A
C296       H297 0.022       .   A
C296       H298 0.022       .   A
C296       H299 0.022       .   A
C224       C225 0.026       .   A
C224       C229 0.027       .   A
C225       C226 0.026       .   A
C225       H232 0.022       .   A
C226       C227 0.027       .   A
C226       H231 0.021       .   A
C227       C228 0.027       .   A
C227       C230 0.027       .   A
C228       C229 0.026       .   A
C228       H234 0.021       .   A
C229       H233 0.022       .   A
C230       C235 0.027       .   A
C230       C239 0.027       .   A
C235       C236 0.026       .   A
C235       H242 0.021       .   A
C236       C237 0.027       .   A
C236       C241 0.031       .   A
C237       C238 0.027       .   A
C237       N240 0.026       .   A
C238       C239 0.026       .   A
C238       H244 0.022       .   A
C239       H243 0.021       .   A
N240       N245 0.025       .   A
C241       C257 0.031       .   A
C241       H261 0.022       .   A
C241       H262 0.022       .   A
N245       C246 0.030       .   A
C246       O247 0.029       .   A
C246       C249 0.031       .   A
C246       H256 0.022       .   A
O247       C255 0.029       .   A
C248       C249 0.030       .   A
C248       H251 0.022       .   A
C248       H252 0.022       .   A
C248       C255 0.031       .   A
C249       H250 0.022       .   A
C249       H253 0.022       .   A
H254       C255 0.022       .   A
C257       H258 0.022       .   A
C257       H259 0.022       .   A
C257       H260 0.022       .   A
C185       C186 0.026       .   A
C185       C190 0.027       .   A
C186       C187 0.026       .   A
C186       H193 0.022       .   A
C187       C188 0.027       .   A
C187       H192 0.021       .   A
C188       C189 0.027       .   A
C188       C191 0.027       .   A
C189       C190 0.026       .   A
C189       H195 0.021       .   A
C190       H194 0.022       .   A
C191       C196 0.027       .   A
C191       C200 0.027       .   A
C196       C197 0.026       .   A
C196       H203 0.021       .   A
C197       C198 0.027       .   A
C197       C202 0.031       .   A
C198       C199 0.027       .   A
C198       N201 0.026       .   A
C199       C200 0.026       .   A
C199       H205 0.022       .   A
C200       H204 0.021       .   A
N201       N206 0.025       .   A
C202       C218 0.031       .   A
C202       H222 0.022       .   A
C202       H223 0.022       .   A
N206       C207 0.030       .   A
C207       O208 0.029       .   A
C207       C210 0.031       .   A
C207       H217 0.022       .   A
O208       C216 0.029       .   A
C209       C210 0.030       .   A
C209       H212 0.022       .   A
C209       H213 0.022       .   A
C209       C216 0.031       .   A
C210       H211 0.022       .   A
C210       H214 0.022       .   A
H215       C216 0.022       .   A
C218       H219 0.022       .   A
C218       H220 0.022       .   A
C218       H221 0.022       .   A
