data_pcu_v1-6c_Zn_1_Ch_1-84_fer_tobacco
_audit_creation_date              2021-02-03
_audit_creation_method            'tobacco_3.0'
_symmetry_space_group_name_H-M    'P1'
_symmetry_Int_Tables_number       1
_symmetry_cell_setting            triclinic
loop_
_symmetry_equiv_pos_as_xyz
  x,y,z
_cell_length_a                    42.21904404423023
_cell_length_b                    42.21904404423023
_cell_length_c                    42.21904404423023
_cell_angle_alpha                 90.0
_cell_angle_beta                  90.0
_cell_angle_gamma                 90.0
loop_
_atom_site_label
_atom_site_type_symbol
_atom_site_fract_x
_atom_site_fract_y
_atom_site_fract_z
_atom_site_charge
Zn1       Zn    0.0265567358   -0.0265567358    0.0265567358          1.4972
Zn2       Zn    0.0265567358    0.0265567358   -0.0265567358          1.4936
Zn3       Zn   -0.0265567358   -0.0265567358   -0.0265567358          1.4911
Zn4       Zn   -0.0265567358    0.0265567358    0.0265567358          1.4948
O5         O    0.0000000000    0.0000000000    0.0000000000         -2.3313
O6         O    0.0709774479   -0.0195172586    0.0195172586         -1.2376
O7         O    0.0195172586    0.0195172586   -0.0709774479         -1.2358
O8         O   -0.0195172586   -0.0709774479   -0.0195172586          -1.231
O9         O    0.0709774479    0.0195172586   -0.0195172586         -1.2378
O10        O    0.0195172586   -0.0709774479    0.0195172586         -1.2338
O11        O   -0.0195172586   -0.0195172586   -0.0709774479         -1.2396
O12        O   -0.0709774479    0.0195172586    0.0195172586         -1.2335
O13        O    0.0195172586    0.0709774479   -0.0195172586         -1.2411
O14        O   -0.0709774479   -0.0195172586   -0.0195172586          -1.235
O15        O   -0.0195172586    0.0709774479    0.0195172586         -1.2397
O16        O   -0.0195172586    0.0195172586    0.0709774479         -1.2388
O17        O    0.0195172586   -0.0195172586    0.0709774479         -1.2366
C18        C    0.0848621773   -0.0000000000   -0.0000000000          0.2812
C19        C   -0.0000000000   -0.0000000000   -0.0848621773          0.2861
C20        C    0.0000000000   -0.0848621773   -0.0000000000          0.2757
C21        C   -0.0848621773    0.0000000000    0.0000000000          0.2795
C22        C   -0.0000000000    0.0848621773    0.0000000000          0.2909
C23        C    0.0000000000    0.0000000000    0.0848621773          0.2814
Zn24      Zn    0.9734432642    0.0265567358    0.4734432642          1.4972
Zn25      Zn    1.0265567358   -0.0265567358    0.4734432642          1.4936
Zn26      Zn    1.0265567358    0.0265567358    0.5265567358          1.4911
Zn27      Zn    0.9734432642   -0.0265567358    0.5265567358          1.4948
O28        O    1.0000000000    0.0000000000    0.5000000000         -2.3313
O29        O    0.9804827414    0.0195172586    0.4290225521         -1.2376
O30        O    1.0709774479   -0.0195172586    0.4804827414         -1.2358
O31        O    1.0195172586    0.0709774479    0.5195172586          -1.231
O32        O    1.0195172586   -0.0195172586    0.4290225521         -1.2378
O33        O    0.9804827414    0.0709774479    0.4804827414         -1.2338
O34        O    1.0709774479    0.0195172586    0.5195172586         -1.2396
O35        O    0.9804827414   -0.0195172586    0.5709774479         -1.2335
O36        O    1.0195172586   -0.0709774479    0.4804827414         -1.2411
O37        O    1.0195172586    0.0195172586    0.5709774479          -1.235
O38        O    0.9804827414   -0.0709774479    0.5195172586         -1.2397
O39        O    0.9290225521   -0.0195172586    0.5195172586         -1.2388
O40        O    0.9290225521    0.0195172586    0.4804827414         -1.2366
C41        C    1.0000000000    0.0000000000    0.4151378227          0.2812
C42        C    1.0848621773    0.0000000000    0.5000000000          0.2861
C43        C    1.0000000000    0.0848621773    0.5000000000          0.2757
C44        C    1.0000000000    0.0000000000    0.5848621773          0.2795
C45        C    1.0000000000   -0.0848621773    0.5000000000          0.2909
C46        C    0.9151378227    0.0000000000    0.5000000000          0.2814
Zn47      Zn    1.0265567358    0.4734432642   -0.0265567358          1.4972
Zn48      Zn    0.9734432642    0.4734432642    0.0265567358          1.4936
Zn49      Zn    1.0265567358    0.5265567358    0.0265567358          1.4911
Zn50      Zn    0.9734432642    0.5265567358   -0.0265567358          1.4948
O51        O    1.0000000000    0.5000000000    0.0000000000         -2.3313
O52        O    1.0195172586    0.4290225521   -0.0195172586         -1.2376
O53        O    0.9804827414    0.4804827414    0.0709774479         -1.2358
O54        O    1.0709774479    0.5195172586    0.0195172586          -1.231
O55        O    0.9804827414    0.4290225521    0.0195172586         -1.2378
O56        O    1.0709774479    0.4804827414   -0.0195172586         -1.2338
O57        O    1.0195172586    0.5195172586    0.0709774479         -1.2396
O58        O    0.9804827414    0.5709774479   -0.0195172586         -1.2335
O59        O    0.9290225521    0.4804827414    0.0195172586         -1.2411
O60        O    1.0195172586    0.5709774479    0.0195172586          -1.235
O61        O    0.9290225521    0.5195172586   -0.0195172586         -1.2397
O62        O    0.9804827414    0.5195172586   -0.0709774479         -1.2388
O63        O    1.0195172586    0.4804827414   -0.0709774479         -1.2366
C64        C    1.0000000000    0.4151378227    0.0000000000          0.2812
C65        C    1.0000000000    0.5000000000    0.0848621773          0.2861
C66        C    1.0848621773    0.5000000000    0.0000000000          0.2757
C67        C    1.0000000000    0.5848621773    0.0000000000          0.2795
C68        C    0.9151378227    0.5000000000    0.0000000000          0.2909
C69        C    1.0000000000    0.5000000000   -0.0848621773          0.2814
Zn70      Zn    0.9734432642    0.4734432642    0.5265567358          1.4972
Zn71      Zn    1.0265567358    0.4734432642    0.4734432642          1.4936
Zn72      Zn    0.9734432642    0.5265567358    0.4734432642          1.4911
Zn73      Zn    1.0265567358    0.5265567358    0.5265567358          1.4948
O74        O    1.0000000000    0.5000000000    0.5000000000         -2.3313
O75        O    0.9804827414    0.4290225521    0.5195172586         -1.2376
O76        O    1.0195172586    0.4804827414    0.4290225521         -1.2358
O77        O    0.9290225521    0.5195172586    0.4804827414          -1.231
O78        O    1.0195172586    0.4290225521    0.4804827414         -1.2378
O79        O    0.9290225521    0.4804827414    0.5195172586         -1.2338
O80        O    0.9804827414    0.5195172586    0.4290225521         -1.2396
O81        O    1.0195172586    0.5709774479    0.5195172586         -1.2335
O82        O    1.0709774479    0.4804827414    0.4804827414         -1.2411
O83        O    0.9804827414    0.5709774479    0.4804827414          -1.235
O84        O    1.0709774479    0.5195172586    0.5195172586         -1.2397
O85        O    1.0195172586    0.5195172586    0.5709774479         -1.2388
O86        O    0.9804827414    0.4804827414    0.5709774479         -1.2366
C87        C    1.0000000000    0.4151378227    0.5000000000          0.2812
C88        C    1.0000000000    0.5000000000    0.4151378227          0.2861
C89        C    0.9151378227    0.5000000000    0.5000000000          0.2757
C90        C    1.0000000000    0.5848621773    0.5000000000          0.2795
C91        C    1.0848621773    0.5000000000    0.5000000000          0.2909
C92        C    1.0000000000    0.5000000000    0.5848621773          0.2814
Zn93      Zn    0.4734432642    0.9734432642   -0.0265567358          1.4972
Zn94      Zn    0.4734432642    1.0265567358    0.0265567358          1.4936
Zn95      Zn    0.5265567358    0.9734432642    0.0265567358          1.4911
Zn96      Zn    0.5265567358    1.0265567358   -0.0265567358          1.4948
O97        O    0.5000000000    1.0000000000    0.0000000000         -2.3313
O98        O    0.4290225521    0.9804827414   -0.0195172586         -1.2376
O99        O    0.4804827414    1.0195172586    0.0709774479         -1.2358
O100       O    0.5195172586    0.9290225521    0.0195172586          -1.231
O101       O    0.4290225521    1.0195172586    0.0195172586         -1.2378
O102       O    0.4804827414    0.9290225521   -0.0195172586         -1.2338
O103       O    0.5195172586    0.9804827414    0.0709774479         -1.2396
O104       O    0.5709774479    1.0195172586   -0.0195172586         -1.2335
O105       O    0.4804827414    1.0709774479    0.0195172586         -1.2411
O106       O    0.5709774479    0.9804827414    0.0195172586          -1.235
O107       O    0.5195172586    1.0709774479   -0.0195172586         -1.2397
O108       O    0.5195172586    1.0195172586   -0.0709774479         -1.2388
O109       O    0.4804827414    0.9804827414   -0.0709774479         -1.2366
C110       C    0.4151378227    1.0000000000    0.0000000000          0.2812
C111       C    0.5000000000    1.0000000000    0.0848621773          0.2861
C112       C    0.5000000000    0.9151378227    0.0000000000          0.2757
C113       C    0.5848621773    1.0000000000    0.0000000000          0.2795
C114       C    0.5000000000    1.0848621773    0.0000000000          0.2909
C115       C    0.5000000000    1.0000000000   -0.0848621773          0.2814
Zn116     Zn    0.4734432642    1.0265567358    0.5265567358          1.4972
Zn117     Zn    0.4734432642    0.9734432642    0.4734432642          1.4936
Zn118     Zn    0.5265567358    1.0265567358    0.4734432642          1.4911
Zn119     Zn    0.5265567358    0.9734432642    0.5265567358          1.4948
O120       O    0.5000000000    1.0000000000    0.5000000000         -2.3313
O121       O    0.4290225521    1.0195172586    0.5195172586         -1.2376
O122       O    0.4804827414    0.9804827414    0.4290225521         -1.2358
O123       O    0.5195172586    1.0709774479    0.4804827414          -1.231
O124       O    0.4290225521    0.9804827414    0.4804827414         -1.2378
O125       O    0.4804827414    1.0709774479    0.5195172586         -1.2338
O126       O    0.5195172586    1.0195172586    0.4290225521         -1.2396
O127       O    0.5709774479    0.9804827414    0.5195172586         -1.2335
O128       O    0.4804827414    0.9290225521    0.4804827414         -1.2411
O129       O    0.5709774479    1.0195172586    0.4804827414          -1.235
O130       O    0.5195172586    0.9290225521    0.5195172586         -1.2397
O131       O    0.5195172586    0.9804827414    0.5709774479         -1.2388
O132       O    0.4804827414    1.0195172586    0.5709774479         -1.2366
C133       C    0.4151378227    1.0000000000    0.5000000000          0.2812
C134       C    0.5000000000    1.0000000000    0.4151378227          0.2861
C135       C    0.5000000000    1.0848621773    0.5000000000          0.2757
C136       C    0.5848621773    1.0000000000    0.5000000000          0.2795
C137       C    0.5000000000    0.9151378227    0.5000000000          0.2909
C138       C    0.5000000000    1.0000000000    0.5848621773          0.2814
Zn139     Zn    0.4734432642    0.5265567358   -0.0265567358          1.4972
Zn140     Zn    0.4734432642    0.4734432642    0.0265567358          1.4936
Zn141     Zn    0.5265567358    0.4734432642   -0.0265567358          1.4911
Zn142     Zn    0.5265567358    0.5265567358    0.0265567358          1.4948
O143       O    0.5000000000    0.5000000000    0.0000000000         -2.3313
O144       O    0.4290225521    0.5195172586   -0.0195172586         -1.2376
O145       O    0.4804827414    0.4290225521    0.0195172586         -1.2358
O146       O    0.5195172586    0.4804827414   -0.0709774479          -1.231
O147       O    0.4290225521    0.4804827414    0.0195172586         -1.2378
O148       O    0.4804827414    0.5195172586   -0.0709774479         -1.2338
O149       O    0.5195172586    0.4290225521   -0.0195172586         -1.2396
O150       O    0.5709774479    0.5195172586    0.0195172586         -1.2335
O151       O    0.4804827414    0.4804827414    0.0709774479         -1.2411
O152       O    0.5709774479    0.4804827414   -0.0195172586          -1.235
O153       O    0.5195172586    0.5195172586    0.0709774479         -1.2397
O154       O    0.5195172586    0.5709774479    0.0195172586         -1.2388
O155       O    0.4804827414    0.5709774479   -0.0195172586         -1.2366
C156       C    0.4151378227    0.5000000000    0.0000000000          0.2812
C157       C    0.5000000000    0.4151378227    0.0000000000          0.2861
C158       C    0.5000000000    0.5000000000   -0.0848621773          0.2757
C159       C    0.5848621773    0.5000000000    0.0000000000          0.2795
C160       C    0.5000000000    0.5000000000    0.0848621773          0.2909
C161       C    0.5000000000    0.5848621773    0.0000000000          0.2814
Zn162     Zn    0.4734432642    0.4734432642    0.4734432642          1.4972
Zn163     Zn    0.5265567358    0.5265567358    0.4734432642          1.4936
Zn164     Zn    0.4734432642    0.5265567358    0.5265567358          1.4911
Zn165     Zn    0.5265567358    0.4734432642    0.5265567358          1.4948
O166       O    0.5000000000    0.5000000000    0.5000000000         -2.3313
O167       O    0.4804827414    0.4804827414    0.4290225521         -1.2376
O168       O    0.5195172586    0.5709774479    0.4804827414         -1.2358
O169       O    0.4290225521    0.5195172586    0.5195172586          -1.231
O170       O    0.5195172586    0.5195172586    0.4290225521         -1.2378
O171       O    0.4290225521    0.4804827414    0.4804827414         -1.2338
O172       O    0.4804827414    0.5709774479    0.5195172586         -1.2396
O173       O    0.5195172586    0.4804827414    0.5709774479         -1.2335
O174       O    0.5709774479    0.5195172586    0.4804827414         -1.2411
O175       O    0.4804827414    0.5195172586    0.5709774479          -1.235
O176       O    0.5709774479    0.4804827414    0.5195172586         -1.2397
O177       O    0.5195172586    0.4290225521    0.5195172586         -1.2388
O178       O    0.4804827414    0.4290225521    0.4804827414         -1.2366
C179       C    0.5000000000    0.5000000000    0.4151378227          0.2812
C180       C    0.5000000000    0.5848621773    0.5000000000          0.2861
C181       C    0.4151378227    0.5000000000    0.5000000000          0.2757
C182       C    0.5000000000    0.5000000000    0.5848621773          0.2795
C183       C    0.5848621773    0.5000000000    0.5000000000          0.2909
C184       C    0.5000000000    0.4151378227    0.5000000000          0.2814
C737       C    0.5000000000    0.5000000000   -0.1213386072          0.5036
C738       C    0.4942841931    0.5234221716   -0.1427198545          0.4996
C739       C    0.4954465041    0.5183357050   -0.1741972517          0.5008
C740       C    0.5027432556    0.4893103489   -0.1871935192          0.5065
C741       C    0.5064687679    0.4654893111   -0.1648275111         -0.4912
C742       C    0.5055718082    0.4712828939   -0.1334705513         -0.4922
C743       C    0.5029646869    0.4831871778   -0.2198117843          -0.493
H744       H    0.4902611434    0.5378773880   -0.1901691314          0.4971
C745       C    0.5073636827    0.5786701570   -0.1387182803         -0.4885
H746       H    0.5092490852    0.4515128230   -0.1173070355         -0.4897
H747       H    0.5105532852    0.4412780941   -0.1726190985         -0.4881
H748       H    0.5089859021    0.5840784331   -0.1639770877         -0.4867
H749       H    0.5305791275    0.5719014786   -0.1294186785         -0.4695
H750       H    0.4988117393    0.5995501017   -0.1259848371          0.5047
O751       O    0.4850128843    0.5532280097   -0.1337244272          0.4924
C752       C    0.5015776989    0.4998528154   -0.2477288922          0.5065
C753       C    0.5017591946    0.4855356937   -0.2803072884          0.5068
H754       H    0.4998815583    0.5255985544   -0.2471966176          0.5056
H755       H    0.5047790829    0.4579457494   -0.2243087872          -0.492
C756       C    0.5010150367    0.4989887173   -0.3098589068          0.5068
C757       C    0.5005698491    0.4993690215   -0.3450325225          0.5069
H758       H    0.5004008586    0.5247413621   -0.3114669397          0.5068
H759       H    0.5023313774    0.4597648366   -0.2799149298          0.5067
C760       C    0.5000000000    0.5000000000   -0.3786613928          0.5068
C713       C    0.5000000000    0.5000000000    0.1213386072          0.5036
C714       C    0.4764379547    0.5051086782    0.1427198545          0.4996
C715       C    0.4815527566    0.5040781877    0.1741972517          0.5008
C716       C    0.5107569666    0.4975338770    0.1871935192          0.5065
C717       C    0.5346663164    0.4944251355    0.1648275111         -0.4912
C718       C    0.5288514909    0.4951720916    0.1334705513         -0.4922
C719       C    0.5168838149    0.4974707401    0.2198117843          -0.493
H720       H    0.4618836108    0.5087568672    0.1901691314          0.4971
C721       C    0.4215463857    0.4906059683    0.1387182803         -0.4885
H722       H    0.5487099802    0.4920068938    0.1173070355         -0.4897
H723       H    0.5589749917    0.4909675909    0.1726190985         -0.4881
H724       H    0.4161818330    0.4888445427    0.1639770877         -0.4867
H725       H    0.4289126826    0.4675731753    0.1294186785         -0.4695
H726       H    0.4004524338    0.4986155262    0.1259848371          0.5046
O727       O    0.4464025016    0.5136067194    0.1337244272          0.4924
C728       C    0.5001879026    0.4984266311    0.2477288922          0.5065
C729       C    0.5145049336    0.4986151451    0.2803072884          0.5068
H730       H    0.4744069324    0.4994569450    0.2471966176          0.5056
H731       H    0.5421636984    0.4963091791    0.2243087872          -0.492
C732       C    0.5010371732    0.4990114334    0.3098589068          0.5068
C733       C    0.5006454925    0.4994466454    0.3450325225          0.5069
H734       H    0.4752772571    0.4989599676    0.3114669397          0.5068
H735       H    0.5402819709    0.4987090628    0.2799149298          0.5067
C736       C    0.5000000000    0.5000000000    0.3786613928          0.5068
C689       C    0.5000000000    0.8786613928    0.5000000000          0.5036
C690       C    0.4942349924    0.8572801455    0.5234101101          0.4996
C691       C    0.4955569554    0.8258027483    0.5183627819          0.5008
C692       C    0.5025117393    0.8128064808    0.4892535932          0.5065
C693       C    0.5102258563    0.8351724889    0.4664103517         -0.4912
C694       C    0.5083415865    0.8665294487    0.4719618980         -0.4922
C695       C    0.5051473803    0.7801882157    0.4837222595          -0.493
H696       H    0.4911163696    0.8098308686    0.5380870445          0.4971
C697       C    0.4570862754    0.8612817197    0.5663447787         -0.4885
H698       H    0.5142248978    0.8826929645    0.4527326307         -0.4897
H699       H    0.5178021302    0.8273809015    0.4430551300         -0.4881
H700       H    0.4531466570    0.8360229123    0.5703895845         -0.4867
H701       H    0.4396335266    0.8705813215    0.5496063963         -0.4695
H702       H    0.4550116209    0.8740151629    0.5888126143          0.5046
O703       O    0.4886699162    0.8662755728    0.5541245217          0.4924
C704       C    0.4986692545    0.7522711078    0.4991398177          0.5065
C705       C    0.5051300046    0.7196927116    0.4863620392          0.5068
H706       H    0.4882656833    0.7528033824    0.5227509523          0.5056
H707       H    0.5152128603    0.7756912128    0.4605035633          -0.492
C708       C    0.4995677670    0.6901410932    0.4986339228          0.5068
C709       C    0.4997865883    0.6549674775    0.4991770071          0.5069
H710       H    0.4882017131    0.6885330603    0.5217507726          0.5068
H711       H    0.5165417156    0.7200850702    0.4632484648          0.5067
C712       C    0.5000000000    0.6213386072    0.5000000000          0.5068
C665       C    0.5000000000    1.1213386072    0.5000000000          0.5036
C666       C    0.4763744519    1.1427198545    0.4951935411          0.4996
C667       C    0.4815020335    1.1741972517    0.4961584329          0.5008
C668       C    0.5107876721    1.1871935192    0.5023281375          0.5065
C669       C    0.5347348796    1.1648275111    0.5051303752         -0.4912
C670       C    0.5289109635    1.1334705513    0.5044579610         -0.4922
C671       C    0.5169148264    1.2198117843    0.5023127919          -0.493
H672       H    0.4617745732    1.1901691314    0.4917320742          0.4971
C673       C    0.4216731474    1.1387182803    0.5103981532         -0.4885
H674       H    0.5488083659    1.1173070355    0.5073685369         -0.4897
H675       H    0.5590858475    1.1726190985    0.5082762727         -0.4881
H676       H    0.4163315964    1.1639770877    0.5122281475         -0.4867
H677       H    0.4293338611    1.1294186785    0.5333347038         -0.4695
H678       H    0.4004783336    1.1259848371    0.5026594394          0.5047
O679       O    0.4462326135    1.1337244272    0.4870809134          0.4924
C680       C    0.5002080400    1.2477288922    0.5015708331          0.5065
C681       C    0.5145214820    1.2803072884    0.5011989513          0.5068
H682       H    0.4744159878    1.2471966176    0.5008708255          0.5056
H683       H    0.5422075143    1.2243087872    0.5031504541          -0.492
C684       C    0.5010497504    1.3098589068    0.5009752006          0.5068
C685       C    0.5006525273    1.3450325225    0.5005450412          0.5069
H686       H    0.4752926067    1.3114669397    0.5013566143          0.5068
H687       H    0.5402952016    1.2799149298    0.5007748699          0.5067
C688       C    0.5000000000    1.3786613928    0.5000000000          0.5068
C641       C    0.5000000000    0.6213386072    0.0000000000          0.5036
C642       C    0.5238336607    0.6427198545    0.0036366450          0.4996
C643       C    0.5186647680    0.6741972517    0.0029255493          0.5008
C644       C    0.4891107264    0.6871935192   -0.0017938262          0.5065
C645       C    0.4650545403    0.6648275111   -0.0034128366         -0.4912
C646       C    0.4709045121    0.6334705513   -0.0030281700         -0.4922
C647       C    0.4829917688    0.7198117843   -0.0014766283          -0.493
H648       H    0.5385863480    0.6901691314    0.0063746056          0.4971
C649       C    0.5777194398    0.6387182803   -0.0142445114         -0.4885
H650       H    0.4508878756    0.6173070355   -0.0049549116         -0.4897
H651       H    0.4405781528    0.6726190985   -0.0053551969         -0.4881
H652       H    0.5829643444    0.6639770877   -0.0163354494         -0.4867
H653       H    0.5689379976    0.6294186785   -0.0367757821         -0.4695
H654       H    0.5992697836    0.6259848371   -0.0075594156          0.5046
O655       O    0.5543385858    0.6337244272    0.0102544011          0.4924
C656       C    0.4997148212    0.7477288922   -0.0015586758          0.5065
C657       C    0.4854370832    0.7803072884   -0.0004820550          0.5068
H658       H    0.5255100396    0.7471966176   -0.0021302340          0.5056
H659       H    0.4576885264    0.7243087872   -0.0010671602          -0.492
C660       C    0.4989034785    0.8098589068   -0.0009222976          0.5068
C661       C    0.4993214122    0.8450325225   -0.0005122308          0.5069
H662       H    0.5246105515    0.8114669397   -0.0025722438          0.5068
H663       H    0.4597155565    0.7799149298    0.0012113239          0.5067
C664       C    0.5000000000    0.8786613928    0.0000000000          0.5068
C617       C    0.5000000000    1.1213386072    0.0000000000          0.5036
C618       C    0.5237781847    1.1427198545   -0.0039832778          0.4996
C619       C    0.5186455405    1.1741972517   -0.0030456889          0.5009
C620       C    0.4890947851    1.1871935192    0.0016942201          0.5065
C621       C    0.4657348761    1.1648275111    0.0076638042         -0.4912
C622       C    0.4714127052    1.1334705513    0.0062035317         -0.4922
C623       C    0.4833804514    1.2198117843    0.0039052485          -0.493
H624       H    0.5386485000    1.1901691314   -0.0059862592          0.4971
C625       C    0.5693919269    1.1387182803   -0.0377885948         -0.4885
H626       H    0.4517945384    1.1173070355    0.0106200465         -0.4897
H627       H    0.4418748391    1.1726190985    0.0134573302         -0.4881
H628       H    0.5737222958    1.1639770877   -0.0414119844         -0.4867
H629       H    0.5540172841    1.1294186785   -0.0564538632         -0.4695
H630       H    0.5919522369    1.1259848371   -0.0381630822          0.5046
O631       O    0.5548247971    1.1337244272   -0.0072163889          0.4924
C632       C    0.4992426160    1.2477288922   -0.0013918214          0.5065
C633       C    0.4860140253    1.2803072884    0.0040869834          0.5068
H634       H    0.5235710387    1.2471966176   -0.0099852967          0.5056
H635       H    0.4594688447    1.2243087872    0.0121911883          -0.492
C636       C    0.4986704063    1.3098589068   -0.0005340158          0.5068
C637       C    0.4991954434    1.3450325225   -0.0002748645          0.5069
H638       H    0.5225785308    1.3114669397   -0.0101245066          0.5068
H639       H    0.4621057240    1.2799149298    0.0137232483          0.5067
C640       C    0.5000000000    1.3786613928    0.0000000000          0.5068
C593       C    0.5000000000    1.0000000000   -0.1213386072          0.5036
C594       C    0.5057158069    0.9765778284   -0.1427198545          0.4996
C595       C    0.5045534959    0.9816642950   -0.1741972517          0.5008
C596       C    0.4972567444    1.0106896511   -0.1871935192          0.5065
C597       C    0.4935312321    1.0345106889   -0.1648275111         -0.4912
C598       C    0.4944281918    1.0287171061   -0.1334705513         -0.4922
C599       C    0.4970353131    1.0168128222   -0.2198117843          -0.493
H600       H    0.5097388566    0.9621226120   -0.1901691314          0.4971
C601       C    0.4926363173    0.9213298430   -0.1387182803         -0.4885
H602       H    0.4907509148    1.0484871770   -0.1173070355         -0.4897
H603       H    0.4894467148    1.0587219059   -0.1726190985         -0.4881
H604       H    0.4910140979    0.9159215669   -0.1639770877         -0.4867
H605       H    0.4694208725    0.9280985214   -0.1294186785         -0.4695
H606       H    0.5011882607    0.9004498983   -0.1259848371          0.5046
O607       O    0.5149871157    0.9467719903   -0.1337244272          0.4924
C608       C    0.4984223011    1.0001471846   -0.2477288922          0.5065
C609       C    0.4982408054    1.0144643063   -0.2803072884          0.5068
H610       H    0.5001184417    0.9744014456   -0.2471966176          0.5056
H611       H    0.4952209171    1.0420542506   -0.2243087872          -0.492
C612       C    0.4989849633    1.0010112827   -0.3098589068          0.5068
C613       C    0.4994301509    1.0006309785   -0.3450325225          0.5069
H614       H    0.4995991414    0.9752586379   -0.3114669397          0.5068
H615       H    0.4976686226    1.0402351634   -0.2799149298          0.5067
C616       C    0.5000000000    1.0000000000   -0.3786613928          0.5068
C569       C    0.5000000000    1.0000000000    0.1213386072          0.5036
C570       C    0.5235620453    0.9948913218    0.1427198545          0.4996
C571       C    0.5184472434    0.9959218123    0.1741972517          0.5008
C572       C    0.4892430334    1.0024661230    0.1871935192          0.5065
C573       C    0.4653336836    1.0055748645    0.1648275111         -0.4912
C574       C    0.4711485091    1.0048279084    0.1334705513         -0.4922
C575       C    0.4831161851    1.0025292599    0.2198117843          -0.493
H576       H    0.5381163892    0.9912431328    0.1901691314          0.4971
C577       C    0.5784536143    1.0093940317    0.1387182803         -0.4885
H578       H    0.4512900198    1.0079931062    0.1173070355         -0.4897
H579       H    0.4410250083    1.0090324091    0.1726190985         -0.4881
H580       H    0.5838181670    1.0111554573    0.1639770877         -0.4867
H581       H    0.5710873174    1.0324268247    0.1294186785         -0.4695
H582       H    0.5995475662    1.0013844738    0.1259848371          0.5046
O583       O    0.5535974984    0.9863932806    0.1337244272          0.4924
C584       C    0.4998120974    1.0015733689    0.2477288922          0.5065
C585       C    0.4854950664    1.0013848549    0.2803072884          0.5068
H586       H    0.5255930676    1.0005430550    0.2471966176          0.5056
H587       H    0.4578363016    1.0036908209    0.2243087872          -0.492
C588       C    0.4989628268    1.0009885666    0.3098589068          0.5068
C589       C    0.4993545075    1.0005533546    0.3450325225          0.5069
H590       H    0.5247227429    1.0010400324    0.3114669397          0.5068
H591       H    0.4597180291    1.0012909372    0.2799149298          0.5067
C592       C    0.5000000000    1.0000000000    0.3786613928          0.5068
C545       C    0.6213386072    0.5000000000    0.5000000000          0.5036
C546       C    0.6427198545    0.5127382491    0.4795303742          0.4996
C547       C    0.6741972517    0.5099167149    0.4839192298          0.5009
C548       C    0.6871935192    0.4942805601    0.5094383314          0.5065
C549       C    0.6648275111    0.4798649570    0.5287647815         -0.4912
C550       C    0.6334705513    0.4833774061    0.5240708662         -0.4922
C551       C    0.7198117843    0.4900600223    0.5138801010          -0.493
H552       H    0.6901691314    0.5202531581    0.4665432902          0.4971
C553       C    0.6387182803    0.5613667992    0.4502271823         -0.4885
H554       H    0.6173070355    0.4718227645    0.5405289441         -0.4897
H555       H    0.6726190985    0.4654216896    0.5486207210         -0.4881
H556       H    0.6639770877    0.5663662424    0.4476029465         -0.4867
H557       H    0.6294186785    0.5727707508    0.4715513886         -0.4695
H558       H    0.6259848371    0.5703043909    0.4295093813          0.5047
O559       O    0.6337244272    0.5275507877    0.4520543146          0.4924
C560       C    0.7477288922    0.5009985252    0.5012303433          0.5065
C561       C    0.7803072884    0.4908948873    0.5113757569          0.5068
H562       H    0.7471966176    0.5182091370    0.4820075753          0.5056
H563       H    0.7243087872    0.4732925035    0.5328345741          -0.492
C564       C    0.8098589068    0.4999874480    0.5014327717          0.5068
C565       C    0.8450325225    0.4999477659    0.5008486067          0.5069
H566       H    0.8114669397    0.5179598949    0.4829783121          0.5068
H567       H    0.7799149298    0.4728800480    0.5298129485          0.5067
C568       C    0.8786613928    0.5000000000    0.5000000000          0.5068
C521       C    1.1213386072    0.5000000000    0.5000000000          0.5036
C522       C    1.1427198545    0.5127382491    0.4795303742          0.4996
C523       C    1.1741972517    0.5099167149    0.4839192298          0.5009
C524       C    1.1871935192    0.4942805601    0.5094383314          0.5065
C525       C    1.1648275111    0.4798649570    0.5287647815         -0.4912
C526       C    1.1334705513    0.4833774061    0.5240708662         -0.4922
C527       C    1.2198117843    0.4900600223    0.5138801010          -0.493
H528       H    1.1901691314    0.5202531581    0.4665432902          0.4971
C529       C    1.1387182803    0.5613667992    0.4502271823         -0.4885
H530       H    1.1173070355    0.4718227645    0.5405289441         -0.4897
H531       H    1.1726190985    0.4654216896    0.5486207210         -0.4881
H532       H    1.1639770877    0.5663662424    0.4476029465         -0.4867
H533       H    1.1294186785    0.5727707508    0.4715513886         -0.4695
H534       H    1.1259848371    0.5703043909    0.4295093813          0.5047
O535       O    1.1337244272    0.5275507877    0.4520543146          0.4924
C536       C    1.2477288922    0.5009985252    0.5012303433          0.5065
C537       C    1.2803072884    0.4908948873    0.5113757569          0.5068
H538       H    1.2471966176    0.5182091370    0.4820075753          0.5056
H539       H    1.2243087872    0.4732925035    0.5328345741          -0.492
C540       C    1.3098589068    0.4999874480    0.5014327717          0.5068
C541       C    1.3450325225    0.4999477659    0.5008486067          0.5069
H542       H    1.3114669397    0.5179598949    0.4829783121          0.5068
H543       H    1.2799149298    0.4728800480    0.5298129485          0.5067
C544       C    1.3786613928    0.5000000000    0.5000000000          0.5068
C497       C    0.8786613928    0.5000000000    0.0000000000          0.5036
C498       C    0.8572801455    0.5056045624    0.0234490394          0.4996
C499       C    0.8258027483    0.5043171940    0.0183927768          0.5009
C500       C    0.8128064808    0.4975619099   -0.0107633549          0.5065
C501       C    0.8351724889    0.4900044020   -0.0336588863         -0.4912
C502       C    0.8665294487    0.4918506112   -0.0280945669         -0.4922
C503       C    0.7801882157    0.4949642088   -0.0163126076          -0.493
H504       H    0.8098308686    0.5086226058    0.0381469857          0.4971
C505       C    0.8612817197    0.5424583960    0.0666370920         -0.4885
H506       H    0.8826929645    0.4860991179   -0.0473636716         -0.4897
H507       H    0.8273809015    0.4825882400   -0.0570654420         -0.4881
H508       H    0.8360229123    0.5463702236    0.0707087810         -0.4867
H509       H    0.8705813215    0.5600253583    0.0500186167         -0.4695
H510       H    0.8740151629    0.5443791444    0.0891186078          0.5047
O511       O    0.8662755728    0.5109591789    0.0542008399          0.4924
C512       C    0.7522711078    0.5013366047   -0.0008510493          0.5065
C513       C    0.7196927116    0.4949635071   -0.0136727708          0.5068
H514       H    0.7528033824    0.5115782453    0.0228307742          0.5056
H515       H    0.7756912128    0.4850579641   -0.0395996867          -0.492
C516       C    0.6901410932    0.5004415776   -0.0013630853          0.5068
C517       C    0.6549674775    0.5002190425   -0.0008215121          0.5069
H518       H    0.6885330603    0.5116490632    0.0218310561          0.5068
H519       H    0.7200850702    0.4837103431   -0.0368639495          0.5067
C520       C    0.6213386072    0.5000000000    0.0000000000          0.5068
C473       C    1.1213386072    0.5000000000    0.0000000000          0.5036
C474       C    1.1427198545    0.4887862872   -0.0213429430          0.4996
C475       C    1.1741972517    0.4911448954   -0.0166889042          0.5008
C476       C    1.1871935192    0.5052484456    0.0097081364          0.5065
C477       C    1.1648275111    0.5146275336    0.0319197097         -0.4912
C478       C    1.1334705513    0.5123552801    0.0265153594         -0.4922
C479       C    1.2198117843    0.5069450020    0.0155957465          -0.493
H480       H    1.1901691314    0.4813848780   -0.0343950444          0.4971
C481       C    1.1387182803    0.4881079620   -0.0781139991         -0.4885
H482       H    1.1173070355    0.5207072995    0.0448080312         -0.4897
H483       H    1.1726190985    0.5244493740    0.0544229930         -0.4881
H484       H    1.1639770877    0.4883732565   -0.0837540935         -0.4867
H485       H    1.1294186785    0.5122713607   -0.0771642363         -0.4695
H486       H    1.1259848371    0.4747575784   -0.0963039711          0.5046
O487       O    1.1337244272    0.4725779991   -0.0480194598          0.4924
C488       C    1.2477288922    0.5015664265   -0.0002389667          0.5065
C489       C    1.2803072884    0.5052070345    0.0136087367          0.5068
H490       H    1.2471966176    0.4936906522   -0.0248091142          0.5056
H491       H    1.2243087872    0.5148134824    0.0396479554          -0.492
C492       C    1.3098589068    0.5012295839    0.0007356057          0.5068
C493       C    1.3450325225    0.5007055997    0.0004743320          0.5069
H494       H    1.3114669397    0.4944019454   -0.0241030593          0.5068
H495       H    1.2799149298    0.5119983328    0.0384752350          0.5067
C496       C    1.3786613928    0.5000000000    0.0000000000          0.5068
C449       C    1.0000000000    0.5000000000   -0.1213386072          0.5036
C450       C    1.0235620453    0.5051086782   -0.1427198545          0.4996
C451       C    1.0184472434    0.5040781877   -0.1741972517          0.5008
C452       C    0.9892430334    0.4975338770   -0.1871935192          0.5065
C453       C    0.9653336836    0.4944251355   -0.1648275111         -0.4912
C454       C    0.9711485091    0.4951720916   -0.1334705513         -0.4922
C455       C    0.9831161851    0.4974707401   -0.2198117843          -0.493
H456       H    1.0381163892    0.5087568672   -0.1901691314          0.4971
C457       C    1.0784536143    0.4906059683   -0.1387182803         -0.4885
H458       H    0.9512900198    0.4920068938   -0.1173070355         -0.4897
H459       H    0.9410250083    0.4909675909   -0.1726190985         -0.4881
H460       H    1.0838181670    0.4888445427   -0.1639770877         -0.4867
H461       H    1.0710873174    0.4675731753   -0.1294186785         -0.4695
H462       H    1.0995475662    0.4986155262   -0.1259848371          0.5047
O463       O    1.0535974984    0.5136067194   -0.1337244272          0.4924
C464       C    0.9998120974    0.4984266311   -0.2477288922          0.5065
C465       C    0.9854950664    0.4986151451   -0.2803072884          0.5068
H466       H    1.0255930676    0.4994569450   -0.2471966176          0.5056
H467       H    0.9578363016    0.4963091791   -0.2243087872          -0.492
C468       C    0.9989628268    0.4990114334   -0.3098589068          0.5068
C469       C    0.9993545075    0.4994466454   -0.3450325225          0.5069
H470       H    1.0247227429    0.4989599676   -0.3114669397          0.5068
H471       H    0.9597180291    0.4987090628   -0.2799149298          0.5067
C472       C    1.0000000000    0.5000000000   -0.3786613928          0.5068
C425       C    1.0000000000    0.5000000000    0.1213386072          0.5036
C426       C    0.9764379547    0.5051086782    0.1427198545          0.4996
C427       C    0.9815527566    0.5040781877    0.1741972517          0.5008
C428       C    1.0107569666    0.4975338770    0.1871935192          0.5065
C429       C    1.0346663164    0.4944251355    0.1648275111         -0.4912
C430       C    1.0288514909    0.4951720916    0.1334705513         -0.4922
C431       C    1.0168838149    0.4974707401    0.2198117843          -0.493
H432       H    0.9618836108    0.5087568672    0.1901691314          0.4971
C433       C    0.9215463857    0.4906059683    0.1387182803         -0.4885
H434       H    1.0487099802    0.4920068938    0.1173070355         -0.4897
H435       H    1.0589749917    0.4909675909    0.1726190985         -0.4881
H436       H    0.9161818330    0.4888445427    0.1639770877         -0.4867
H437       H    0.9289126826    0.4675731753    0.1294186785         -0.4695
H438       H    0.9004524338    0.4986155262    0.1259848371          0.5047
O439       O    0.9464025016    0.5136067194    0.1337244272          0.4924
C440       C    1.0001879026    0.4984266311    0.2477288922          0.5065
C441       C    1.0145049336    0.4986151451    0.2803072884          0.5068
H442       H    0.9744069324    0.4994569450    0.2471966176          0.5056
H443       H    1.0421636984    0.4963091791    0.2243087872          -0.492
C444       C    1.0010371732    0.4990114334    0.3098589068          0.5068
C445       C    1.0006454925    0.4994466454    0.3450325225          0.5069
H446       H    0.9752772571    0.4989599676    0.3114669397          0.5068
H447       H    1.0402819709    0.4987090628    0.2799149298          0.5067
C448       C    1.0000000000    0.5000000000    0.3786613928          0.5068
C401       C    1.0000000000   -0.1213386072    0.5000000000          0.5036
C402       C    1.0235620453   -0.1427198545    0.4948913218          0.4996
C403       C    1.0184472434   -0.1741972517    0.4959218123          0.5008
C404       C    0.9892430334   -0.1871935192    0.5024661230          0.5065
C405       C    0.9653336836   -0.1648275111    0.5055748645         -0.4912
C406       C    0.9711485091   -0.1334705513    0.5048279084         -0.4922
C407       C    0.9831161851   -0.2198117843    0.5025292599          -0.493
H408       H    1.0381163892   -0.1901691314    0.4912431328          0.4971
C409       C    1.0784536143   -0.1387182803    0.5093940317         -0.4885
H410       H    0.9512900198   -0.1173070355    0.5079931062         -0.4897
H411       H    0.9410250083   -0.1726190985    0.5090324091         -0.4881
H412       H    1.0838181670   -0.1639770877    0.5111554573         -0.4867
H413       H    1.0710873174   -0.1294186785    0.5324268247         -0.4695
H414       H    1.0995475662   -0.1259848371    0.5013844738          0.5046
O415       O    1.0535974984   -0.1337244272    0.4863932806          0.4924
C416       C    0.9998120974   -0.2477288922    0.5015733689          0.5065
C417       C    0.9854950664   -0.2803072884    0.5013848549          0.5068
H418       H    1.0255930676   -0.2471966176    0.5005430550          0.5056
H419       H    0.9578363016   -0.2243087872    0.5036908209          -0.492
C420       C    0.9989628268   -0.3098589068    0.5009885666          0.5068
C421       C    0.9993545075   -0.3450325225    0.5005533546          0.5069
H422       H    1.0247227429   -0.3114669397    0.5010400324          0.5068
H423       H    0.9597180291   -0.2799149298    0.5012909372          0.5067
C424       C    1.0000000000   -0.3786613928    0.5000000000          0.5068
C377       C    1.0000000000    0.1213386072    0.5000000000          0.5036
C378       C    1.0032940683    0.1427198545    0.4761165814          0.4996
C379       C    1.0026572604    0.1741972517    0.4812951512          0.5008
C380       C    0.9983627060    0.1871935192    0.5109139068          0.5065
C381       C    0.9970892594    0.1648275111    0.5349908588         -0.4912
C382       C    0.9973898929    0.1334705513    0.5291359669         -0.4922
C383       C    0.9987677267    0.2198117843    0.5170276793          -0.493
H384       H    1.0058199287    0.1901691314    0.4613261034          0.4971
C385       C    0.9846410673    0.1387182803    0.4224930932         -0.4885
H386       H    0.9957507472    0.1173070355    0.5491782042         -0.4897
H387       H    0.9954985294    0.1726190985    0.5594926115         -0.4881
H388       H    0.9824750389    0.1639770877    0.4172787507         -0.4867
H389       H    0.9622382024    0.1294186785    0.4315971324         -0.4695
H390       H    0.9910160558    0.1259848371    0.4008489866          0.5047
O391       O    1.0094731549    0.1337244272    0.4455197835          0.4924
C392       C    0.9984455794    0.2477288922    0.5003075287          0.5065
C393       C    0.9997270880    0.2803072884    0.5145683370          0.5068
H394       H    0.9975037144    0.2471966176    0.4745231757          0.5056
H395       H    0.9995404547    0.2243087872    0.5423224343          -0.492
C396       C    0.9990935413    0.3098589068    0.5011096508          0.5068
C397       C    0.9994975651    0.3450325225    0.5006858724          0.5069
H398       H    0.9970746649    0.3114669397    0.4754289174          0.5068
H399       H    1.0017895999    0.2799149298    0.5402628989          0.5067
C400       C    1.0000000000    0.3786613928    0.5000000000          0.5068
C353       C    0.6213386072   -0.0000000000    0.5000000000          0.5036
C354       C    0.6427198545    0.0114682831    0.4787927595          0.4996
C355       C    0.6741972517    0.0089192077    0.4833452668          0.5008
C356       C    0.6871935192   -0.0051341576    0.5097690593          0.5065
C357       C    0.6648275111   -0.0183462871    0.5299373739         -0.4912
C358       C    0.6334705513   -0.0151261528    0.5250383053         -0.4922
C359       C    0.7198117843   -0.0090764193    0.5144595634          -0.493
H360       H    0.6901691314    0.0181785061    0.4653722111          0.4971
C361       C    0.6387182803    0.0582224304    0.4465830924         -0.4885
H362       H    0.6173070355   -0.0256572752    0.5421693744         -0.4897
H363       H    0.6726190985   -0.0315537907    0.5506358801         -0.4881
H364       H    0.6639770877    0.0630528165    0.4436593248         -0.4867
H365       H    0.6294186785    0.0709035890    0.4671733839         -0.4695
H366       H    0.6259848371    0.0658819970    0.4253595473          0.5047
O367       O    0.6337244272    0.0245804072    0.4504657873          0.4924
C368       C    0.7477288922    0.0010715844    0.5011672635          0.5065
C369       C    0.7803072884   -0.0083955850    0.5119090333          0.5068
H370       H    0.7471966176    0.0170798499    0.4809322591          0.5056
H371       H    0.7243087872   -0.0246587495    0.5343997921          -0.492
C372       C    0.8098589068    0.0000747083    0.5014308777          0.5068
C373       C    0.8450325225   -0.0000004681    0.5008502127          0.5069
H374       H    0.8114669397    0.0168901754    0.4819163704          0.5068
H375       H    0.7799149298   -0.0252544172    0.5314088858          0.5067
C376       C    0.8786613928   -0.0000000000    0.5000000000          0.5068
C329       C    1.1213386072   -0.0000000000    0.5000000000          0.5036
C330       C    1.1427198545    0.0238332997    0.4963609898          0.4996
C331       C    1.1741972517    0.0186644776    0.4970725985          0.5008
C332       C    1.1871935192   -0.0108890956    0.5017949068          0.5065
C333       C    1.1648275111   -0.0349451209    0.5034163045         -0.4912
C334       C    1.1334705513   -0.0290951872    0.5030310574         -0.4922
C335       C    1.2198117843   -0.0170080846    0.5014783162          -0.493
H336       H    1.1901691314    0.0385857152    0.4936215652          0.4971
C337       C    1.1387182803    0.0777208530    0.5142367985         -0.4885
H338       H    1.1173070355   -0.0491116325    0.5049597854         -0.4897
H339       H    1.1726190985   -0.0594213155    0.5053610939         -0.4881
H340       H    1.1639770877    0.0829659651    0.5163272160         -0.4867
H341       H    1.1294186785    0.0689416468    0.5367689405         -0.4695
H342       H    1.1259848371    0.0992705333    0.5075495641          0.5046
O343       O    1.1337244272    0.0543375679    0.4897402064          0.4924
C344       C    1.2477288922   -0.0002850241    0.5015587041          0.5065
C345       C    1.2803072884   -0.0145628689    0.5004835002          0.5068
H346       H    1.2471966176    0.0255102509    0.5021277024          0.5056
H347       H    1.2243087872   -0.0423113674    0.5010713591          -0.492
C348       C    1.3098589068   -0.0010964300    0.5009224064          0.5068
C349       C    1.3450325225   -0.0006785370    0.5005122981          0.5069
H350       H    1.3114669397    0.0246108067    0.5025698015          0.5068
H351       H    1.2799149298   -0.0402845635    0.4987926739          0.5067
C352       C    1.3786613928   -0.0000000000    0.5000000000          0.5068
C305       C    0.0000000000   -0.1213386072   -0.0000000000          0.5036
C306       C    0.0198108216   -0.1427198545   -0.0137404481          0.4996
C307       C    0.0154802766   -0.1741972517   -0.0108302096          0.5009
C308       C   -0.0089931570   -0.1871935192    0.0063966569          0.5065
C309       C   -0.0298905213   -0.1648275111    0.0184225228         -0.4912
C310       C   -0.0248047360   -0.1334705513    0.0155062020         -0.4922
C311       C   -0.0146289994   -0.2198117843    0.0088007237          -0.493
H312       H    0.0318594473   -0.1901691314   -0.0226829774          0.4971
C313       C    0.0760724898   -0.1387182803   -0.0213586919         -0.4885
H314       H   -0.0419382786   -0.1173070355    0.0260332999         -0.4897
H315       H   -0.0510232409   -0.1726190985    0.0309235017         -0.4881
H316       H    0.0817026761   -0.1639770877   -0.0217853637         -0.4867
H317       H    0.0780858587   -0.1294186785    0.0027394041         -0.4695
H318       H    0.0924926355   -0.1259848371   -0.0368340478          0.5047
O319       O    0.0443041519   -0.1337244272   -0.0330904332          0.4924
C320       C    0.0004287986   -0.2477288922    0.0015254275          0.5065
C321       C   -0.0128695260   -0.2803072884    0.0068327318          0.5068
H322       H    0.0238509277   -0.2471966176   -0.0092969492          0.5056
H323       H   -0.0375379724   -0.2243087872    0.0195524999          -0.492
C324       C   -0.0005796610   -0.3098589068    0.0013103379          0.5068
C325       C   -0.0003844507   -0.3450325225    0.0007583268          0.5069
H326       H    0.0232371911   -0.3114669397   -0.0085046242          0.5068
H327       H   -0.0367184480   -0.2799149298    0.0166150315          0.5067
C328       C    0.0000000000   -0.3786613928    0.0000000000          0.5068
C281       C   -0.0000000000    0.3786613928    0.0000000000          0.5036
C282       C   -0.0078691775    0.3572801455   -0.0227891337          0.4996
C283       C   -0.0062388885    0.3258027483   -0.0178327977          0.5008
C284       C    0.0037254497    0.3128064808    0.0103882201          0.5065
C285       C    0.0096500497    0.3351724889    0.0337595786         -0.4912
C286       C    0.0082182040    0.3665294487    0.0280745143         -0.4922
C287       C    0.0045153443    0.2801882157    0.0164642651          -0.493
H288       H   -0.0132190533    0.3098308686   -0.0368075872          0.4971
C289       C    0.0000158595    0.3612817197   -0.0790140315         -0.4885
H290       H    0.0137180592    0.3826929645    0.0474169460         -0.4897
H291       H    0.0159683838    0.3273809015    0.0574860399         -0.4881
H292       H    0.0011281078    0.3360229123   -0.0845497293         -0.4867
H293       H    0.0237601542    0.3705813215   -0.0744335995         -0.4695
H294       H   -0.0104407505    0.3740151629   -0.0990082089          0.5046
O295       O   -0.0198720971    0.3662755728   -0.0516036279          0.4924
C296       C    0.0015845495    0.2522711078   -0.0000001710          0.5065
C297       C    0.0030966762    0.2196927116    0.0142380308          0.5068
H298       H   -0.0024984602    0.2528033824   -0.0254766111          0.5056
H299       H    0.0086691986    0.2756912128    0.0414275828          -0.492
C300       C    0.0011046822    0.1901410932    0.0009125073          0.5068
C301       C    0.0006260574    0.1549674775    0.0005752512          0.5069
H302       H   -0.0019016958    0.1885330603   -0.0246714255          0.5068
H303       H    0.0060629344    0.2200850702    0.0398440023          0.5067
C304       C   -0.0000000000    0.1213386072    0.0000000000          0.5068
C257       C   -0.3786613928   -0.0000000000    0.0000000000          0.5036
C258       C   -0.3572801455   -0.0042195122   -0.0237374027          0.4996
C259       C   -0.3258027483   -0.0033819846   -0.0185874846          0.5009
C260       C   -0.3128064808    0.0020600905    0.0108420533          0.5065
C261       C   -0.3351724889    0.0042680260    0.0348513495         -0.4912
C262       C   -0.3665294487    0.0037401421    0.0290125588         -0.4922
C263       C   -0.2801882157    0.0018929111    0.0169669457          -0.493
H264       H   -0.3098308686   -0.0073181128   -0.0384185772          0.4971
C265       C   -0.3612817197    0.0123359972   -0.0780451190         -0.4885
H266       H   -0.3826929645    0.0061567417    0.0489759783         -0.4897
H267       H   -0.3273809015    0.0068095099    0.0592727985         -0.4881
H268       H   -0.3360229123    0.0142977998   -0.0833396800         -0.4867
H269       H   -0.3705813215    0.0350756618   -0.0698183615         -0.4695
H270       H   -0.3740151629    0.0051248940   -0.0994251989          0.5046
O271       O   -0.3662755728   -0.0115826961   -0.0540710255          0.4924
C272       C   -0.2522711078    0.0015651952    0.0002469034          0.5065
C273       C   -0.2196927116    0.0008387226    0.0145467339          0.5068
H274       H   -0.2528033824    0.0015045619   -0.0255545751          0.5056
H275       H   -0.2756912128    0.0021035317    0.0422726245          -0.492
C276       C   -0.1901410932    0.0009488870    0.0010735947          0.5068
C277       C   -0.1549674775    0.0005287034    0.0006658337          0.5069
H278       H   -0.1885330603    0.0019684778   -0.0246661870          0.5068
H279       H   -0.2200850702   -0.0002239335    0.0403020291          0.5067
C280       C   -0.1213386072   -0.0000000000    0.0000000000          0.5068
C233       C    0.3786613928   -0.0000000000    0.0000000000          0.5036
C234       C    0.3572801455    0.0200451286    0.0133963200          0.4996
C235       C    0.3258027483    0.0156649772    0.0105612922          0.5009
C236       C    0.3128064808   -0.0091022693   -0.0062404156          0.5065
C237       C    0.3351724889   -0.0302041722   -0.0179036473         -0.4912
C238       C    0.3665294487   -0.0250687882   -0.0150755791         -0.4922
C239       C    0.2801882157   -0.0147787832   -0.0085468081          -0.493
H240       H    0.3098308686    0.0322463713    0.0221294686          0.4971
C241       C    0.3612817197    0.0764299552    0.0200419403         -0.4885
H242       H    0.3826929645   -0.0423815510   -0.0253052574         -0.4897
H243       H    0.3273809015   -0.0515495994   -0.0300378572         -0.4881
H244       H    0.3360229123    0.0820666695    0.0203713304         -0.4867
H245       H    0.3705813215    0.0780269146   -0.0040873283         -0.4695
H246       H    0.3740151629    0.0931148706    0.0352314572          0.5047
O247       O    0.3662755728    0.0448689293    0.0323204863          0.4924
C248       C    0.2522711078    0.0004023946   -0.0015326042          0.5065
C249       C    0.2196927116   -0.0129855902   -0.0066094910          0.5068
H250       H    0.2528033824    0.0240079050    0.0088837218          0.5056
H251       H    0.2756912128   -0.0378699949   -0.0189014050          -0.492
C252       C    0.1901410932   -0.0006022006   -0.0013001333          0.5068
C253       C    0.1549674775   -0.0003974876   -0.0007515753          0.5069
H254       H    0.1885330603    0.0233805786    0.0081021125          0.5068
H255       H    0.2200850702   -0.0369998705   -0.0159785256          0.5067
C256       C    0.1213386072   -0.0000000000    0.0000000000          0.5068
C209       C   -0.0000000000    0.0000000000   -0.3786613928          0.5036
C210       C    0.0084388516    0.0225843830   -0.3572801455          0.4996
C211       C    0.0066846404    0.0176705401   -0.3258027483          0.5009
C212       C   -0.0039850868   -0.0102914127   -0.3128064808          0.5065
C213       C   -0.0104945915   -0.0335066584   -0.3351724889         -0.4912
C214       C   -0.0089204653   -0.0278593347   -0.3665294487         -0.4922
C215       C   -0.0049272804   -0.0163457110   -0.2801882157          -0.493
H216       H    0.0141389948    0.0364641012   -0.3098308686          0.4971
C217       C    0.0019679083    0.0789895231   -0.3612817197         -0.4885
H218       H   -0.0149042068   -0.0470575874   -0.3826929645         -0.4897
H219       H   -0.0174066215   -0.0570670097   -0.3273809015         -0.4881
H220       H    0.0009949925    0.0845514006   -0.3360229123         -0.4867
H221       H   -0.0218839002    0.0750066702   -0.3705813215         -0.4695
H222       H    0.0129232054    0.0987148695   -0.3740151629          0.5046
O223       O    0.0211614176    0.0510884434   -0.3662755728          0.4924
C224       C   -0.0015840457    0.0000399534   -0.2522711078          0.5065
C225       C   -0.0034531666   -0.0141557961   -0.2196927116          0.5068
H226       H    0.0031373002    0.0254058529   -0.2528033824          0.5056
H227       H   -0.0097065661   -0.0411968713   -0.2756912128          -0.492
C228       C   -0.0011272438   -0.0008844850   -0.1901410932          0.5068
C229       C   -0.0006403026   -0.0005593518   -0.1549674775          0.5069
H230       H    0.0025205086    0.0246159038   -0.1885330603          0.5068
H231       H   -0.0070613653   -0.0396792240   -0.2200850702          0.5067
C232       C   -0.0000000000   -0.0000000000   -0.1213386072          0.5068
C185       C    0.0000000000    0.0000000000    0.1213386072          0.5041
C186       C   -0.0028442158    0.0239411571    0.1427198545          0.4996
C187       C   -0.0021525879    0.0187696235    0.1741972517          0.5008
C188       C    0.0011719714   -0.0109736309    0.1871935192          0.5065
C189       C    0.0060201884   -0.0345917612    0.1648275111         -0.4912
C190       C    0.0048324846   -0.0288507248    0.1334705513         -0.4922
C191       C    0.0031078344   -0.0167869510    0.2198117843          -0.493
H192       H   -0.0041354105    0.0388901045    0.1901691314          0.4971
C193       C   -0.0344346692    0.0711158982    0.1387182803         -0.4885
H194       H    0.0083079303   -0.0486572729    0.1173070355         -0.4897
H195       H    0.0106686853   -0.0587010495    0.1726190985         -0.4881
H196       H   -0.0378473177    0.0756142175    0.1639770877         -0.4867
H197       H   -0.0538122479    0.0566493392    0.1294186785         -0.4695
H198       H   -0.0337323128    0.0936683819    0.1259848371          0.5046
O199       O   -0.0045923217    0.0551066714    0.1337244272          0.4924
C200       C   -0.0014263732   -0.0006901136    0.2477288922          0.5065
C201       C    0.0034150178   -0.0141650477    0.2803072884          0.5068
H202       H   -0.0088492824    0.0240206207    0.2471966176          0.5056
H203       H    0.0102434460   -0.0410666707    0.2243087872          -0.492
C204       C   -0.0005968463   -0.0013026000    0.3098589068          0.5068
C205       C   -0.0003129392   -0.0007905257    0.3450325225          0.5069
H206       H   -0.0090356892    0.0230358852    0.3114669397          0.5068
H207       H    0.0118995741   -0.0385058935    0.2799149298          0.5067
C208       C    0.0000000000    0.0000000000    0.3786613928          0.5068
loop_
_geom_bond_atom_site_label_1
_geom_bond_atom_site_label_2
_geom_bond_distance
_geom_bond_site_symmetry_2
_ccdc_geom_bond_type
Zn1          O5 1.942       .   S
Zn1          O6 1.922       .   S
Zn1         O10 1.922       .   S
Zn1         O17 1.922       .   S
Zn2          O5 1.942       .   S
Zn2          O7 1.922       .   S
Zn2          O9 1.922       .   S
Zn2         O13 1.922       .   S
Zn3          O5 1.942       .   S
Zn3          O8 1.922       .   S
Zn3         O11 1.922       .   S
Zn3         O14 1.922       .   S
Zn4          O5 1.942       .   S
Zn4         O12 1.922       .   S
Zn4         O15 1.922       .   S
Zn4         O16 1.922       .   S
O6          C18 1.304       .   A
O7          C19 1.304       .   A
O8          C20 1.304       .   A
O9          C18 1.304       .   A
O10         C20 1.304       .   A
O11         C19 1.304       .   A
O12         C21 1.304       .   A
O13         C22 1.304       .   A
O14         C21 1.304       .   A
O15         C22 1.304       .   A
O16         C23 1.304       .   A
O17         C23 1.304       .   A
C18        C256 1.540       .   S
C19        C232 1.540       .   S
C20        C305 1.540       .   S
C21        C280 1.540       .   S
C22        C304 1.540       .   S
C23        C185 1.540       .   S
Zn24        O28 1.942       .   S
Zn24        O29 1.922       .   S
Zn24        O33 1.922       .   S
Zn24        O40 1.922       .   S
Zn25        O28 1.942       .   S
Zn25        O30 1.922       .   S
Zn25        O32 1.922       .   S
Zn25        O36 1.922       .   S
Zn26        O28 1.942       .   S
Zn26        O31 1.922       .   S
Zn26        O34 1.922       .   S
Zn26        O37 1.922       .   S
Zn27        O28 1.942       .   S
Zn27        O35 1.922       .   S
Zn27        O38 1.922       .   S
Zn27        O39 1.922       .   S
O29         C41 1.304       .   A
O30         C42 1.304       .   A
O31         C43 1.304       .   A
O32         C41 1.304       .   A
O33         C43 1.304       .   A
O34         C42 1.304       .   A
O35         C44 1.304       .   A
O36         C45 1.304       .   A
O37         C44 1.304       .   A
O38         C45 1.304       .   A
O39         C46 1.304       .   A
O40         C46 1.304       .   A
C41        C208 1.540   1_655   S
C42        C329 1.540       .   S
C43        C377 1.540       .   S
C44        C209 1.540   1_656   S
C45        C401 1.540       .   S
C46        C376 1.540       .   S
Zn47        O51 1.942       .   S
Zn47        O52 1.922       .   S
Zn47        O56 1.922       .   S
Zn47        O63 1.922       .   S
Zn48        O51 1.942       .   S
Zn48        O53 1.922       .   S
Zn48        O55 1.922       .   S
Zn48        O59 1.922       .   S
Zn49        O51 1.942       .   S
Zn49        O54 1.922       .   S
Zn49        O57 1.922       .   S
Zn49        O60 1.922       .   S
Zn50        O51 1.942       .   S
Zn50        O58 1.922       .   S
Zn50        O61 1.922       .   S
Zn50        O62 1.922       .   S
O52         C64 1.304       .   A
O53         C65 1.304       .   A
O54         C66 1.304       .   A
O55         C64 1.304       .   A
O56         C66 1.304       .   A
O57         C65 1.304       .   A
O58         C67 1.304       .   A
O59         C68 1.304       .   A
O60         C67 1.304       .   A
O61         C68 1.304       .   A
O62         C69 1.304       .   A
O63         C69 1.304       .   A
C64        C281 1.540   1_655   S
C65        C425 1.540       .   S
C66        C473 1.540       .   S
C67        C328 1.540   1_665   S
C68        C497 1.540       .   S
C69        C449 1.540       .   S
Zn70        O74 1.942       .   S
Zn70        O75 1.922       .   S
Zn70        O79 1.922       .   S
Zn70        O86 1.922       .   S
Zn71        O74 1.942       .   S
Zn71        O76 1.922       .   S
Zn71        O78 1.922       .   S
Zn71        O82 1.922       .   S
Zn72        O74 1.942       .   S
Zn72        O77 1.922       .   S
Zn72        O80 1.922       .   S
Zn72        O83 1.922       .   S
Zn73        O74 1.942       .   S
Zn73        O81 1.922       .   S
Zn73        O84 1.922       .   S
Zn73        O85 1.922       .   S
O75         C87 1.304       .   A
O76         C88 1.304       .   A
O77         C89 1.304       .   A
O78         C87 1.304       .   A
O79         C89 1.304       .   A
O80         C88 1.304       .   A
O81         C90 1.304       .   A
O82         C91 1.304       .   A
O83         C90 1.304       .   A
O84         C91 1.304       .   A
O85         C92 1.304       .   A
O86         C92 1.304       .   A
C87        C400 1.540       .   S
C88        C448 1.540       .   S
C89        C568 1.540       .   S
C90        C424 1.540   1_565   S
C91        C521 1.540       .   S
C92        C472 1.540   1_556   S
Zn93        O97 1.942       .   S
Zn93        O98 1.922       .   S
Zn93       O102 1.922       .   S
Zn93       O109 1.922       .   S
Zn94        O97 1.942       .   S
Zn94        O99 1.922       .   S
Zn94       O101 1.922       .   S
Zn94       O105 1.922       .   S
Zn95        O97 1.942       .   S
Zn95       O100 1.922       .   S
Zn95       O103 1.922       .   S
Zn95       O106 1.922       .   S
Zn96        O97 1.942       .   S
Zn96       O104 1.922       .   S
Zn96       O107 1.922       .   S
Zn96       O108 1.922       .   S
O98        C110 1.304       .   A
O99        C111 1.304       .   A
O100       C112 1.304       .   A
O101       C110 1.304       .   A
O102       C112 1.304       .   A
O103       C111 1.304       .   A
O104       C113 1.304       .   A
O105       C114 1.304       .   A
O106       C113 1.304       .   A
O107       C114 1.304       .   A
O108       C115 1.304       .   A
O109       C115 1.304       .   A
C110       C233 1.540   1_565   S
C111       C569 1.540       .   S
C112       C664 1.540       .   S
C113       C257 1.540   1_665   S
C114       C617 1.540       .   S
C115       C593 1.540       .   S
Zn116      O120 1.942       .   S
Zn116      O121 1.922       .   S
Zn116      O125 1.922       .   S
Zn116      O132 1.922       .   S
Zn117      O120 1.942       .   S
Zn117      O122 1.922       .   S
Zn117      O124 1.922       .   S
Zn117      O128 1.922       .   S
Zn118      O120 1.942       .   S
Zn118      O123 1.922       .   S
Zn118      O126 1.922       .   S
Zn118      O129 1.922       .   S
Zn119      O120 1.942       .   S
Zn119      O127 1.922       .   S
Zn119      O130 1.922       .   S
Zn119      O131 1.922       .   S
O121       C133 1.304       .   A
O122       C134 1.304       .   A
O123       C135 1.304       .   A
O124       C133 1.304       .   A
O125       C135 1.304       .   A
O126       C134 1.304       .   A
O127       C136 1.304       .   A
O128       C137 1.304       .   A
O129       C136 1.304       .   A
O130       C137 1.304       .   A
O131       C138 1.304       .   A
O132       C138 1.304       .   A
C133       C352 1.540   1_465   S
C134       C592 1.540       .   S
C135       C665 1.540       .   S
C136       C353 1.540   1_565   S
C137       C689 1.540       .   S
C138       C616 1.540   1_556   S
Zn139      O143 1.942       .   S
Zn139      O144 1.922       .   S
Zn139      O148 1.922       .   S
Zn139      O155 1.922       .   S
Zn140      O143 1.942       .   S
Zn140      O145 1.922       .   S
Zn140      O147 1.922       .   S
Zn140      O151 1.922       .   S
Zn141      O143 1.942       .   S
Zn141      O146 1.922       .   S
Zn141      O149 1.922       .   S
Zn141      O152 1.922       .   S
Zn142      O143 1.942       .   S
Zn142      O150 1.922       .   S
Zn142      O153 1.922       .   S
Zn142      O154 1.922       .   S
O144       C156 1.304       .   A
O145       C157 1.304       .   A
O146       C158 1.304       .   A
O147       C156 1.304       .   A
O148       C158 1.304       .   A
O149       C157 1.304       .   A
O150       C159 1.304       .   A
O151       C160 1.304       .   A
O152       C159 1.304       .   A
O153       C160 1.304       .   A
O154       C161 1.304       .   A
O155       C161 1.304       .   A
C156       C496 1.540   1_455   S
C157       C640 1.540   1_545   S
C158       C737 1.540       .   S
C159       C520 1.540       .   S
C160       C713 1.540       .   S
C161       C641 1.540       .   S
Zn162      O166 1.942       .   S
Zn162      O167 1.922       .   S
Zn162      O171 1.922       .   S
Zn162      O178 1.922       .   S
Zn163      O166 1.942       .   S
Zn163      O168 1.922       .   S
Zn163      O170 1.922       .   S
Zn163      O174 1.922       .   S
Zn164      O166 1.942       .   S
Zn164      O169 1.922       .   S
Zn164      O172 1.922       .   S
Zn164      O175 1.922       .   S
Zn165      O166 1.942       .   S
Zn165      O173 1.922       .   S
Zn165      O176 1.922       .   S
Zn165      O177 1.922       .   S
O167       C179 1.304       .   A
O168       C180 1.304       .   A
O169       C181 1.304       .   A
O170       C179 1.304       .   A
O171       C181 1.304       .   A
O172       C180 1.304       .   A
O173       C182 1.304       .   A
O174       C183 1.304       .   A
O175       C182 1.304       .   A
O176       C183 1.304       .   A
O177       C184 1.304       .   A
O178       C184 1.304       .   A
C179       C736 1.540       .   S
C180       C712 1.540       .   S
C181       C544 1.540   1_455   S
C182       C760 1.540   1_556   S
C183       C545 1.540       .   S
C184       C688 1.540   1_545   S
C737       C738 0.027       .   A
C737       C742 0.026       .   A
C738       C739 0.027       .   A
C738       O751 0.027       .   A
C739       C740 0.027       .   A
C739       H744 0.021       .   A
C740       C741 0.027       .   A
C740       C743 0.028       .   A
C741       C742 0.027       .   A
C741       H747 0.021       .   A
C742       H746 0.021       .   A
C743       C752 0.027       .   A
C743       H755 0.021       .   A
C745       H748 0.022       .   A
C745       H749 0.022       .   A
C745       H750 0.022       .   A
C745       O751 0.028       .   A
C752       C753 0.030       .   A
C752       H754 0.021       .   A
C753       C756 0.027       .   A
C753       H759 0.021       .   A
C756       C757 0.029       .   A
C756       H758 0.021       .   A
C757       C760 0.028       .   A
C713       C714 0.027       .   A
C713       C718 0.026       .   A
C714       C715 0.027       .   A
C714       O727 0.027       .   A
C715       C716 0.027       .   A
C715       H720 0.021       .   A
C716       C717 0.027       .   A
C716       C719 0.028       .   A
C717       C718 0.027       .   A
C717       H723 0.021       .   A
C718       H722 0.021       .   A
C719       C728 0.027       .   A
C719       H731 0.021       .   A
C721       H724 0.022       .   A
C721       H725 0.022       .   A
C721       H726 0.022       .   A
C721       O727 0.028       .   A
C728       C729 0.030       .   A
C728       H730 0.021       .   A
C729       C732 0.027       .   A
C729       H735 0.021       .   A
C732       C733 0.029       .   A
C732       H734 0.021       .   A
C733       C736 0.028       .   A
C689       C690 0.027       .   A
C689       C694 0.026       .   A
C690       C691 0.027       .   A
C690       O703 0.027       .   A
C691       C692 0.027       .   A
C691       H696 0.021       .   A
C692       C693 0.027       .   A
C692       C695 0.028       .   A
C693       C694 0.027       .   A
C693       H699 0.021       .   A
C694       H698 0.021       .   A
C695       C704 0.027       .   A
C695       H707 0.021       .   A
C697       H700 0.022       .   A
C697       H701 0.022       .   A
C697       H702 0.022       .   A
C697       O703 0.028       .   A
C704       C705 0.030       .   A
C704       H706 0.021       .   A
C705       C708 0.027       .   A
C705       H711 0.021       .   A
C708       C709 0.029       .   A
C708       H710 0.021       .   A
C709       C712 0.028       .   A
C665       C666 0.027       .   A
C665       C670 0.026       .   A
C666       C667 0.027       .   A
C666       O679 0.027       .   A
C667       C668 0.027       .   A
C667       H672 0.021       .   A
C668       C669 0.027       .   A
C668       C671 0.028       .   A
C669       C670 0.027       .   A
C669       H675 0.021       .   A
C670       H674 0.021       .   A
C671       C680 0.027       .   A
C671       H683 0.021       .   A
C673       H676 0.022       .   A
C673       H677 0.022       .   A
C673       H678 0.022       .   A
C673       O679 0.028       .   A
C680       C681 0.030       .   A
C680       H682 0.021       .   A
C681       C684 0.027       .   A
C681       H687 0.021       .   A
C684       C685 0.029       .   A
C684       H686 0.021       .   A
C685       C688 0.028       .   A
C641       C642 0.027       .   A
C641       C646 0.026       .   A
C642       C643 0.027       .   A
C642       O655 0.027       .   A
C643       C644 0.027       .   A
C643       H648 0.021       .   A
C644       C645 0.027       .   A
C644       C647 0.028       .   A
C645       C646 0.027       .   A
C645       H651 0.021       .   A
C646       H650 0.021       .   A
C647       C656 0.027       .   A
C647       H659 0.021       .   A
C649       H652 0.022       .   A
C649       H653 0.022       .   A
C649       H654 0.022       .   A
C649       O655 0.028       .   A
C656       C657 0.030       .   A
C656       H658 0.021       .   A
C657       C660 0.027       .   A
C657       H663 0.021       .   A
C660       C661 0.029       .   A
C660       H662 0.021       .   A
C661       C664 0.028       .   A
C617       C618 0.027       .   A
C617       C622 0.026       .   A
C618       C619 0.027       .   A
C618       O631 0.027       .   A
C619       C620 0.027       .   A
C619       H624 0.021       .   A
C620       C621 0.027       .   A
C620       C623 0.028       .   A
C621       C622 0.027       .   A
C621       H627 0.021       .   A
C622       H626 0.021       .   A
C623       C632 0.027       .   A
C623       H635 0.021       .   A
C625       H628 0.022       .   A
C625       H629 0.022       .   A
C625       H630 0.022       .   A
C625       O631 0.028       .   A
C632       C633 0.030       .   A
C632       H634 0.021       .   A
C633       C636 0.027       .   A
C633       H639 0.021       .   A
C636       C637 0.029       .   A
C636       H638 0.021       .   A
C637       C640 0.028       .   A
C593       C594 0.027       .   A
C593       C598 0.026       .   A
C594       C595 0.027       .   A
C594       O607 0.027       .   A
C595       C596 0.027       .   A
C595       H600 0.021       .   A
C596       C597 0.027       .   A
C596       C599 0.028       .   A
C597       C598 0.027       .   A
C597       H603 0.021       .   A
C598       H602 0.021       .   A
C599       C608 0.027       .   A
C599       H611 0.021       .   A
C601       H604 0.022       .   A
C601       H605 0.022       .   A
C601       H606 0.022       .   A
C601       O607 0.028       .   A
C608       C609 0.030       .   A
C608       H610 0.021       .   A
C609       C612 0.027       .   A
C609       H615 0.021       .   A
C612       C613 0.029       .   A
C612       H614 0.021       .   A
C613       C616 0.028       .   A
C569       C570 0.027       .   A
C569       C574 0.026       .   A
C570       C571 0.027       .   A
C570       O583 0.027       .   A
C571       C572 0.027       .   A
C571       H576 0.021       .   A
C572       C573 0.027       .   A
C572       C575 0.028       .   A
C573       C574 0.027       .   A
C573       H579 0.021       .   A
C574       H578 0.021       .   A
C575       C584 0.027       .   A
C575       H587 0.021       .   A
C577       H580 0.022       .   A
C577       H581 0.022       .   A
C577       H582 0.022       .   A
C577       O583 0.028       .   A
C584       C585 0.030       .   A
C584       H586 0.021       .   A
C585       C588 0.027       .   A
C585       H591 0.021       .   A
C588       C589 0.029       .   A
C588       H590 0.021       .   A
C589       C592 0.028       .   A
C545       C546 0.027       .   A
C545       C550 0.026       .   A
C546       C547 0.027       .   A
C546       O559 0.027       .   A
C547       C548 0.027       .   A
C547       H552 0.021       .   A
C548       C549 0.027       .   A
C548       C551 0.028       .   A
C549       C550 0.027       .   A
C549       H555 0.021       .   A
C550       H554 0.021       .   A
C551       C560 0.027       .   A
C551       H563 0.021       .   A
C553       H556 0.022       .   A
C553       H557 0.022       .   A
C553       H558 0.022       .   A
C553       O559 0.028       .   A
C560       C561 0.030       .   A
C560       H562 0.021       .   A
C561       C564 0.027       .   A
C561       H567 0.021       .   A
C564       C565 0.029       .   A
C564       H566 0.021       .   A
C565       C568 0.028       .   A
C521       C522 0.027       .   A
C521       C526 0.026       .   A
C522       C523 0.027       .   A
C522       O535 0.027       .   A
C523       C524 0.027       .   A
C523       H528 0.021       .   A
C524       C525 0.027       .   A
C524       C527 0.028       .   A
C525       C526 0.027       .   A
C525       H531 0.021       .   A
C526       H530 0.021       .   A
C527       C536 0.027       .   A
C527       H539 0.021       .   A
C529       H532 0.022       .   A
C529       H533 0.022       .   A
C529       H534 0.022       .   A
C529       O535 0.028       .   A
C536       C537 0.030       .   A
C536       H538 0.021       .   A
C537       C540 0.027       .   A
C537       H543 0.021       .   A
C540       C541 0.029       .   A
C540       H542 0.021       .   A
C541       C544 0.028       .   A
C497       C498 0.027       .   A
C497       C502 0.026       .   A
C498       C499 0.027       .   A
C498       O511 0.027       .   A
C499       C500 0.027       .   A
C499       H504 0.021       .   A
C500       C501 0.027       .   A
C500       C503 0.028       .   A
C501       C502 0.027       .   A
C501       H507 0.021       .   A
C502       H506 0.021       .   A
C503       C512 0.027       .   A
C503       H515 0.021       .   A
C505       H508 0.022       .   A
C505       H509 0.022       .   A
C505       H510 0.022       .   A
C505       O511 0.028       .   A
C512       C513 0.030       .   A
C512       H514 0.021       .   A
C513       C516 0.027       .   A
C513       H519 0.021       .   A
C516       C517 0.029       .   A
C516       H518 0.021       .   A
C517       C520 0.028       .   A
C473       C474 0.027       .   A
C473       C478 0.026       .   A
C474       C475 0.027       .   A
C474       O487 0.027       .   A
C475       C476 0.027       .   A
C475       H480 0.021       .   A
C476       C477 0.027       .   A
C476       C479 0.028       .   A
C477       C478 0.027       .   A
C477       H483 0.021       .   A
C478       H482 0.021       .   A
C479       C488 0.027       .   A
C479       H491 0.021       .   A
C481       H484 0.022       .   A
C481       H485 0.022       .   A
C481       H486 0.022       .   A
C481       O487 0.028       .   A
C488       C489 0.030       .   A
C488       H490 0.021       .   A
C489       C492 0.027       .   A
C489       H495 0.021       .   A
C492       C493 0.029       .   A
C492       H494 0.021       .   A
C493       C496 0.028       .   A
C449       C450 0.027       .   A
C449       C454 0.026       .   A
C450       C451 0.027       .   A
C450       O463 0.027       .   A
C451       C452 0.027       .   A
C451       H456 0.021       .   A
C452       C453 0.027       .   A
C452       C455 0.028       .   A
C453       C454 0.027       .   A
C453       H459 0.021       .   A
C454       H458 0.021       .   A
C455       C464 0.027       .   A
C455       H467 0.021       .   A
C457       H460 0.022       .   A
C457       H461 0.022       .   A
C457       H462 0.022       .   A
C457       O463 0.028       .   A
C464       C465 0.030       .   A
C464       H466 0.021       .   A
C465       C468 0.027       .   A
C465       H471 0.021       .   A
C468       C469 0.029       .   A
C468       H470 0.021       .   A
C469       C472 0.028       .   A
C425       C426 0.027       .   A
C425       C430 0.026       .   A
C426       C427 0.027       .   A
C426       O439 0.027       .   A
C427       C428 0.027       .   A
C427       H432 0.021       .   A
C428       C429 0.027       .   A
C428       C431 0.028       .   A
C429       C430 0.027       .   A
C429       H435 0.021       .   A
C430       H434 0.021       .   A
C431       C440 0.027       .   A
C431       H443 0.021       .   A
C433       H436 0.022       .   A
C433       H437 0.022       .   A
C433       H438 0.022       .   A
C433       O439 0.028       .   A
C440       C441 0.030       .   A
C440       H442 0.021       .   A
C441       C444 0.027       .   A
C441       H447 0.021       .   A
C444       C445 0.029       .   A
C444       H446 0.021       .   A
C445       C448 0.028       .   A
C401       C402 0.027       .   A
C401       C406 0.026       .   A
C402       C403 0.027       .   A
C402       O415 0.027       .   A
C403       C404 0.027       .   A
C403       H408 0.021       .   A
C404       C405 0.027       .   A
C404       C407 0.028       .   A
C405       C406 0.027       .   A
C405       H411 0.021       .   A
C406       H410 0.021       .   A
C407       C416 0.027       .   A
C407       H419 0.021       .   A
C409       H412 0.022       .   A
C409       H413 0.022       .   A
C409       H414 0.022       .   A
C409       O415 0.028       .   A
C416       C417 0.030       .   A
C416       H418 0.021       .   A
C417       C420 0.027       .   A
C417       H423 0.021       .   A
C420       C421 0.029       .   A
C420       H422 0.021       .   A
C421       C424 0.028       .   A
C377       C378 0.027       .   A
C377       C382 0.026       .   A
C378       C379 0.027       .   A
C378       O391 0.027       .   A
C379       C380 0.027       .   A
C379       H384 0.021       .   A
C380       C381 0.027       .   A
C380       C383 0.028       .   A
C381       C382 0.027       .   A
C381       H387 0.021       .   A
C382       H386 0.021       .   A
C383       C392 0.027       .   A
C383       H395 0.021       .   A
C385       H388 0.022       .   A
C385       H389 0.022       .   A
C385       H390 0.022       .   A
C385       O391 0.028       .   A
C392       C393 0.030       .   A
C392       H394 0.021       .   A
C393       C396 0.027       .   A
C393       H399 0.021       .   A
C396       C397 0.029       .   A
C396       H398 0.021       .   A
C397       C400 0.028       .   A
C353       C354 0.027       .   A
C353       C358 0.026       .   A
C354       C355 0.027       .   A
C354       O367 0.027       .   A
C355       C356 0.027       .   A
C355       H360 0.021       .   A
C356       C357 0.027       .   A
C356       C359 0.028       .   A
C357       C358 0.027       .   A
C357       H363 0.021       .   A
C358       H362 0.021       .   A
C359       C368 0.027       .   A
C359       H371 0.021       .   A
C361       H364 0.022       .   A
C361       H365 0.022       .   A
C361       H366 0.022       .   A
C361       O367 0.028       .   A
C368       C369 0.030       .   A
C368       H370 0.021       .   A
C369       C372 0.027       .   A
C369       H375 0.021       .   A
C372       C373 0.029       .   A
C372       H374 0.021       .   A
C373       C376 0.028       .   A
C329       C330 0.027       .   A
C329       C334 0.026       .   A
C330       C331 0.027       .   A
C330       O343 0.027       .   A
C331       C332 0.027       .   A
C331       H336 0.021       .   A
C332       C333 0.027       .   A
C332       C335 0.028       .   A
C333       C334 0.027       .   A
C333       H339 0.021       .   A
C334       H338 0.021       .   A
C335       C344 0.027       .   A
C335       H347 0.021       .   A
C337       H340 0.022       .   A
C337       H341 0.022       .   A
C337       H342 0.022       .   A
C337       O343 0.028       .   A
C344       C345 0.030       .   A
C344       H346 0.021       .   A
C345       C348 0.027       .   A
C345       H351 0.021       .   A
C348       C349 0.029       .   A
C348       H350 0.021       .   A
C349       C352 0.028       .   A
C305       C306 0.027       .   A
C305       C310 0.026       .   A
C306       C307 0.027       .   A
C306       O319 0.027       .   A
C307       C308 0.027       .   A
C307       H312 0.021       .   A
C308       C309 0.027       .   A
C308       C311 0.028       .   A
C309       C310 0.027       .   A
C309       H315 0.021       .   A
C310       H314 0.021       .   A
C311       C320 0.027       .   A
C311       H323 0.021       .   A
C313       H316 0.022       .   A
C313       H317 0.022       .   A
C313       H318 0.022       .   A
C313       O319 0.028       .   A
C320       C321 0.030       .   A
C320       H322 0.021       .   A
C321       C324 0.027       .   A
C321       H327 0.021       .   A
C324       C325 0.029       .   A
C324       H326 0.021       .   A
C325       C328 0.028       .   A
C281       C282 0.027       .   A
C281       C286 0.026       .   A
C282       C283 0.027       .   A
C282       O295 0.027       .   A
C283       C284 0.027       .   A
C283       H288 0.021       .   A
C284       C285 0.027       .   A
C284       C287 0.028       .   A
C285       C286 0.027       .   A
C285       H291 0.021       .   A
C286       H290 0.021       .   A
C287       C296 0.027       .   A
C287       H299 0.021       .   A
C289       H292 0.022       .   A
C289       H293 0.022       .   A
C289       H294 0.022       .   A
C289       O295 0.028       .   A
C296       C297 0.030       .   A
C296       H298 0.021       .   A
C297       C300 0.027       .   A
C297       H303 0.021       .   A
C300       C301 0.029       .   A
C300       H302 0.021       .   A
C301       C304 0.028       .   A
C257       C258 0.027       .   A
C257       C262 0.026       .   A
C258       C259 0.027       .   A
C258       O271 0.027       .   A
C259       C260 0.027       .   A
C259       H264 0.021       .   A
C260       C261 0.027       .   A
C260       C263 0.028       .   A
C261       C262 0.027       .   A
C261       H267 0.021       .   A
C262       H266 0.021       .   A
C263       C272 0.027       .   A
C263       H275 0.021       .   A
C265       H268 0.022       .   A
C265       H269 0.022       .   A
C265       H270 0.022       .   A
C265       O271 0.028       .   A
C272       C273 0.030       .   A
C272       H274 0.021       .   A
C273       C276 0.027       .   A
C273       H279 0.021       .   A
C276       C277 0.029       .   A
C276       H278 0.021       .   A
C277       C280 0.028       .   A
C233       C234 0.027       .   A
C233       C238 0.026       .   A
C234       C235 0.027       .   A
C234       O247 0.027       .   A
C235       C236 0.027       .   A
C235       H240 0.021       .   A
C236       C237 0.027       .   A
C236       C239 0.028       .   A
C237       C238 0.027       .   A
C237       H243 0.021       .   A
C238       H242 0.021       .   A
C239       C248 0.027       .   A
C239       H251 0.021       .   A
C241       H244 0.022       .   A
C241       H245 0.022       .   A
C241       H246 0.022       .   A
C241       O247 0.028       .   A
C248       C249 0.030       .   A
C248       H250 0.021       .   A
C249       C252 0.027       .   A
C249       H255 0.021       .   A
C252       C253 0.029       .   A
C252       H254 0.021       .   A
C253       C256 0.028       .   A
C209       C210 0.027       .   A
C209       C214 0.026       .   A
C210       C211 0.027       .   A
C210       O223 0.027       .   A
C211       C212 0.027       .   A
C211       H216 0.021       .   A
C212       C213 0.027       .   A
C212       C215 0.028       .   A
C213       C214 0.027       .   A
C213       H219 0.021       .   A
C214       H218 0.021       .   A
C215       C224 0.027       .   A
C215       H227 0.021       .   A
C217       H220 0.022       .   A
C217       H221 0.022       .   A
C217       H222 0.022       .   A
C217       O223 0.028       .   A
C224       C225 0.030       .   A
C224       H226 0.021       .   A
C225       C228 0.027       .   A
C225       H231 0.021       .   A
C228       C229 0.029       .   A
C228       H230 0.021       .   A
C229       C232 0.028       .   A
C185       C186 0.027       .   A
C185       C190 0.026       .   A
C186       C187 0.027       .   A
C186       O199 0.027       .   A
C187       C188 0.027       .   A
C187       H192 0.021       .   A
C188       C189 0.027       .   A
C188       C191 0.028       .   A
C189       C190 0.027       .   A
C189       H195 0.021       .   A
C190       H194 0.021       .   A
C191       C200 0.027       .   A
C191       H203 0.021       .   A
C193       H196 0.022       .   A
C193       H197 0.022       .   A
C193       H198 0.022       .   A
C193       O199 0.028       .   A
C200       C201 0.030       .   A
C200       H202 0.021       .   A
C201       C204 0.027       .   A
C201       H207 0.021       .   A
C204       C205 0.029       .   A
C204       H206 0.021       .   A
C205       C208 0.028       .   A
