data_pcu_v1-6c_Zn_1_Ch_1-2_fer_tobacco
_audit_creation_date              2021-02-03
_audit_creation_method            'tobacco_3.0'
_symmetry_space_group_name_H-M    'P1'
_symmetry_Int_Tables_number       1
_symmetry_cell_setting            triclinic
loop_
_symmetry_equiv_pos_as_xyz
  x,y,z
_cell_length_a                    41.496113159498364
_cell_length_b                    41.496113159498364
_cell_length_c                    41.496113159498364
_cell_angle_alpha                 90.0
_cell_angle_beta                  90.0
_cell_angle_gamma                 90.0
loop_
_atom_site_label
_atom_site_type_symbol
_atom_site_fract_x
_atom_site_fract_y
_atom_site_fract_z
_atom_site_charge
Zn1       Zn   -0.0270193981   -0.0270193981    0.0270193981          1.4972
Zn2       Zn    0.0270193981    0.0270193981    0.0270193981          1.4936
Zn3       Zn    0.0270193981   -0.0270193981   -0.0270193981          1.4911
Zn4       Zn   -0.0270193981    0.0270193981   -0.0270193981          1.4948
O5         O    0.0000000000    0.0000000000    0.0000000000         -2.1931
O6         O   -0.0198572815   -0.0198572815    0.0722139924         -1.0994
O7         O    0.0722139924    0.0198572815    0.0198572815         -1.0976
O8         O    0.0198572815   -0.0722139924   -0.0198572815         -1.0928
O9         O    0.0198572815    0.0198572815    0.0722139924         -1.0996
O10        O   -0.0198572815   -0.0722139924    0.0198572815         -1.0956
O11        O    0.0722139924   -0.0198572815   -0.0198572815         -1.1014
O12        O   -0.0198572815    0.0198572815   -0.0722139924         -1.0953
O13        O    0.0198572815    0.0722139924    0.0198572815         -1.1029
O14        O    0.0198572815   -0.0198572815   -0.0722139924         -1.0968
O15        O   -0.0198572815    0.0722139924   -0.0198572815         -1.1014
O16        O   -0.0722139924    0.0198572815   -0.0198572815         -1.1005
O17        O   -0.0722139924   -0.0198572815    0.0198572815         -1.0984
C18        C   -0.0000000000   -0.0000000000    0.0863406167          0.4195
C19        C    0.0863406167   -0.0000000000   -0.0000000000          0.4244
C20        C   -0.0000000000   -0.0863406167    0.0000000000           0.414
C21        C    0.0000000000    0.0000000000   -0.0863406167          0.4177
C22        C    0.0000000000    0.0863406167   -0.0000000000          0.4291
C23        C   -0.0863406167    0.0000000000    0.0000000000          0.4196
Zn24      Zn    0.9729806019    0.0270193981    0.4729806019          1.4972
Zn25      Zn    1.0270193981   -0.0270193981    0.4729806019          1.4936
Zn26      Zn    1.0270193981    0.0270193981    0.5270193981          1.4911
Zn27      Zn    0.9729806019   -0.0270193981    0.5270193981          1.4948
O28        O    1.0000000000    0.0000000000    0.5000000000         -2.1931
O29        O    0.9801427185    0.0198572815    0.4277860076         -1.0994
O30        O    1.0722139924   -0.0198572815    0.4801427185         -1.0976
O31        O    1.0198572815    0.0722139924    0.5198572815         -1.0928
O32        O    1.0198572815   -0.0198572815    0.4277860076         -1.0996
O33        O    0.9801427185    0.0722139924    0.4801427185         -1.0956
O34        O    1.0722139924    0.0198572815    0.5198572815         -1.1014
O35        O    0.9801427185   -0.0198572815    0.5722139924         -1.0953
O36        O    1.0198572815   -0.0722139924    0.4801427185         -1.1029
O37        O    1.0198572815    0.0198572815    0.5722139924         -1.0968
O38        O    0.9801427185   -0.0722139924    0.5198572815         -1.1014
O39        O    0.9277860076   -0.0198572815    0.5198572815         -1.1005
O40        O    0.9277860076    0.0198572815    0.4801427185         -1.0984
C41        C    1.0000000000    0.0000000000    0.4136593833          0.4195
C42        C    1.0863406167    0.0000000000    0.5000000000          0.4244
C43        C    1.0000000000    0.0863406167    0.5000000000           0.414
C44        C    1.0000000000    0.0000000000    0.5863406167          0.4177
C45        C    1.0000000000   -0.0863406167    0.5000000000          0.4291
C46        C    0.9136593833    0.0000000000    0.5000000000          0.4196
Zn47      Zn    1.0270193981    0.4729806019   -0.0270193981          1.4972
Zn48      Zn    0.9729806019    0.4729806019    0.0270193981          1.4936
Zn49      Zn    1.0270193981    0.5270193981    0.0270193981          1.4911
Zn50      Zn    0.9729806019    0.5270193981   -0.0270193981          1.4948
O51        O    1.0000000000    0.5000000000    0.0000000000         -2.1931
O52        O    1.0198572815    0.4277860076   -0.0198572815         -1.0994
O53        O    0.9801427185    0.4801427185    0.0722139924         -1.0976
O54        O    1.0722139924    0.5198572815    0.0198572815         -1.0928
O55        O    0.9801427185    0.4277860076    0.0198572815         -1.0996
O56        O    1.0722139924    0.4801427185   -0.0198572815         -1.0956
O57        O    1.0198572815    0.5198572815    0.0722139924         -1.1014
O58        O    0.9801427185    0.5722139924   -0.0198572815         -1.0953
O59        O    0.9277860076    0.4801427185    0.0198572815         -1.1029
O60        O    1.0198572815    0.5722139924    0.0198572815         -1.0968
O61        O    0.9277860076    0.5198572815   -0.0198572815         -1.1014
O62        O    0.9801427185    0.5198572815   -0.0722139924         -1.1005
O63        O    1.0198572815    0.4801427185   -0.0722139924         -1.0984
C64        C    1.0000000000    0.4136593833    0.0000000000          0.4195
C65        C    1.0000000000    0.5000000000    0.0863406167          0.4244
C66        C    1.0863406167    0.5000000000    0.0000000000           0.414
C67        C    1.0000000000    0.5863406167    0.0000000000          0.4177
C68        C    0.9136593833    0.5000000000    0.0000000000          0.4291
C69        C    1.0000000000    0.5000000000   -0.0863406167          0.4196
Zn70      Zn    0.9729806019    0.4729806019    0.5270193981          1.4972
Zn71      Zn    1.0270193981    0.4729806019    0.4729806019          1.4936
Zn72      Zn    0.9729806019    0.5270193981    0.4729806019          1.4911
Zn73      Zn    1.0270193981    0.5270193981    0.5270193981          1.4948
O74        O    1.0000000000    0.5000000000    0.5000000000         -2.1931
O75        O    0.9801427185    0.4277860076    0.5198572815         -1.0994
O76        O    1.0198572815    0.4801427185    0.4277860076         -1.0976
O77        O    0.9277860076    0.5198572815    0.4801427185         -1.0928
O78        O    1.0198572815    0.4277860076    0.4801427185         -1.0996
O79        O    0.9277860076    0.4801427185    0.5198572815         -1.0956
O80        O    0.9801427185    0.5198572815    0.4277860076         -1.1014
O81        O    1.0198572815    0.5722139924    0.5198572815         -1.0953
O82        O    1.0722139924    0.4801427185    0.4801427185         -1.1029
O83        O    0.9801427185    0.5722139924    0.4801427185         -1.0968
O84        O    1.0722139924    0.5198572815    0.5198572815         -1.1014
O85        O    1.0198572815    0.5198572815    0.5722139924         -1.1005
O86        O    0.9801427185    0.4801427185    0.5722139924         -1.0984
C87        C    1.0000000000    0.4136593833    0.5000000000          0.4195
C88        C    1.0000000000    0.5000000000    0.4136593833          0.4244
C89        C    0.9136593833    0.5000000000    0.5000000000           0.414
C90        C    1.0000000000    0.5863406167    0.5000000000          0.4177
C91        C    1.0863406167    0.5000000000    0.5000000000          0.4291
C92        C    1.0000000000    0.5000000000    0.5863406167          0.4196
Zn93      Zn    0.4729806019    0.9729806019   -0.0270193981          1.4972
Zn94      Zn    0.4729806019    1.0270193981    0.0270193981          1.4936
Zn95      Zn    0.5270193981    0.9729806019    0.0270193981          1.4911
Zn96      Zn    0.5270193981    1.0270193981   -0.0270193981          1.4948
O97        O    0.5000000000    1.0000000000    0.0000000000         -2.1931
O98        O    0.4277860076    0.9801427185   -0.0198572815         -1.0994
O99        O    0.4801427185    1.0198572815    0.0722139924         -1.0976
O100       O    0.5198572815    0.9277860076    0.0198572815         -1.0928
O101       O    0.4277860076    1.0198572815    0.0198572815         -1.0996
O102       O    0.4801427185    0.9277860076   -0.0198572815         -1.0956
O103       O    0.5198572815    0.9801427185    0.0722139924         -1.1014
O104       O    0.5722139924    1.0198572815   -0.0198572815         -1.0953
O105       O    0.4801427185    1.0722139924    0.0198572815         -1.1029
O106       O    0.5722139924    0.9801427185    0.0198572815         -1.0968
O107       O    0.5198572815    1.0722139924   -0.0198572815         -1.1014
O108       O    0.5198572815    1.0198572815   -0.0722139924         -1.1005
O109       O    0.4801427185    0.9801427185   -0.0722139924         -1.0984
C110       C    0.4136593833    1.0000000000    0.0000000000          0.4195
C111       C    0.5000000000    1.0000000000    0.0863406167          0.4244
C112       C    0.5000000000    0.9136593833    0.0000000000           0.414
C113       C    0.5863406167    1.0000000000    0.0000000000          0.4177
C114       C    0.5000000000    1.0863406167    0.0000000000          0.4291
C115       C    0.5000000000    1.0000000000   -0.0863406167          0.4196
Zn116     Zn    0.4729806019    1.0270193981    0.4729806019          1.4972
Zn117     Zn    0.5270193981    1.0270193981    0.5270193981          1.4936
Zn118     Zn    0.4729806019    0.9729806019    0.5270193981          1.4911
Zn119     Zn    0.5270193981    0.9729806019    0.4729806019          1.4948
O120       O    0.5000000000    1.0000000000    0.5000000000         -2.1931
O121       O    0.4801427185    1.0722139924    0.4801427185         -1.0994
O122       O    0.5198572815    1.0198572815    0.5722139924         -1.0976
O123       O    0.4277860076    0.9801427185    0.5198572815         -1.0928
O124       O    0.5198572815    1.0722139924    0.5198572815         -1.0996
O125       O    0.4277860076    1.0198572815    0.4801427185         -1.0956
O126       O    0.4801427185    0.9801427185    0.5722139924         -1.1014
O127       O    0.5198572815    0.9277860076    0.4801427185         -1.0953
O128       O    0.5722139924    1.0198572815    0.5198572815         -1.1029
O129       O    0.4801427185    0.9277860076    0.5198572815         -1.0968
O130       O    0.5722139924    0.9801427185    0.4801427185         -1.1014
O131       O    0.5198572815    0.9801427185    0.4277860076         -1.1005
O132       O    0.4801427185    1.0198572815    0.4277860076         -1.0984
C133       C    0.5000000000    1.0863406167    0.5000000000          0.4195
C134       C    0.5000000000    1.0000000000    0.5863406167          0.4244
C135       C    0.4136593833    1.0000000000    0.5000000000           0.414
C136       C    0.5000000000    0.9136593833    0.5000000000          0.4177
C137       C    0.5863406167    1.0000000000    0.5000000000          0.4291
C138       C    0.5000000000    1.0000000000    0.4136593833          0.4196
Zn139     Zn    0.4729806019    0.5270193981   -0.0270193981          1.4972
Zn140     Zn    0.4729806019    0.4729806019    0.0270193981          1.4936
Zn141     Zn    0.5270193981    0.4729806019   -0.0270193981          1.4911
Zn142     Zn    0.5270193981    0.5270193981    0.0270193981          1.4948
O143       O    0.5000000000    0.5000000000    0.0000000000         -2.1931
O144       O    0.4277860076    0.5198572815   -0.0198572815         -1.0994
O145       O    0.4801427185    0.4277860076    0.0198572815         -1.0976
O146       O    0.5198572815    0.4801427185   -0.0722139924         -1.0928
O147       O    0.4277860076    0.4801427185    0.0198572815         -1.0996
O148       O    0.4801427185    0.5198572815   -0.0722139924         -1.0956
O149       O    0.5198572815    0.4277860076   -0.0198572815         -1.1014
O150       O    0.5722139924    0.5198572815    0.0198572815         -1.0953
O151       O    0.4801427185    0.4801427185    0.0722139924         -1.1029
O152       O    0.5722139924    0.4801427185   -0.0198572815         -1.0968
O153       O    0.5198572815    0.5198572815    0.0722139924         -1.1014
O154       O    0.5198572815    0.5722139924    0.0198572815         -1.1005
O155       O    0.4801427185    0.5722139924   -0.0198572815         -1.0984
C156       C    0.4136593833    0.5000000000    0.0000000000          0.4195
C157       C    0.5000000000    0.4136593833    0.0000000000          0.4244
C158       C    0.5000000000    0.5000000000   -0.0863406167           0.414
C159       C    0.5863406167    0.5000000000    0.0000000000          0.4177
C160       C    0.5000000000    0.5000000000    0.0863406167          0.4291
C161       C    0.5000000000    0.5863406167    0.0000000000          0.4196
Zn162     Zn    0.4729806019    0.5270193981    0.4729806019          1.4972
Zn163     Zn    0.5270193981    0.5270193981    0.5270193981          1.4936
Zn164     Zn    0.4729806019    0.4729806019    0.5270193981          1.4911
Zn165     Zn    0.5270193981    0.4729806019    0.4729806019          1.4948
O166       O    0.5000000000    0.5000000000    0.5000000000         -2.1931
O167       O    0.4801427185    0.5722139924    0.4801427185         -1.0994
O168       O    0.5198572815    0.5198572815    0.5722139924         -1.0976
O169       O    0.4277860076    0.4801427185    0.5198572815         -1.0928
O170       O    0.5198572815    0.5722139924    0.5198572815         -1.0996
O171       O    0.4277860076    0.5198572815    0.4801427185         -1.0956
O172       O    0.4801427185    0.4801427185    0.5722139924         -1.1014
O173       O    0.5198572815    0.4277860076    0.4801427185         -1.0953
O174       O    0.5722139924    0.5198572815    0.5198572815         -1.1029
O175       O    0.4801427185    0.4277860076    0.5198572815         -1.0968
O176       O    0.5722139924    0.4801427185    0.4801427185         -1.1014
O177       O    0.5198572815    0.4801427185    0.4277860076         -1.1005
O178       O    0.4801427185    0.5198572815    0.4277860076         -1.0984
C179       C    0.5000000000    0.5863406167    0.5000000000          0.4195
C180       C    0.5000000000    0.5000000000    0.5863406167          0.4244
C181       C    0.4136593833    0.5000000000    0.5000000000           0.414
C182       C    0.5000000000    0.4136593833    0.5000000000          0.4177
C183       C    0.5863406167    0.5000000000    0.5000000000          0.4291
C184       C    0.5000000000    0.5000000000    0.4136593833          0.4196
C944       C    0.5000000000    0.5000000000   -0.1234525263         -0.3506
C945       C    0.4976563634    0.5310599363   -0.1332071318          -0.353
C946       C    0.4981859460    0.5383190087   -0.1649125215         -0.3531
C947       C    0.5012358855    0.5152845470   -0.1871052512         -0.3507
C948       C    0.5042066530    0.4848010598   -0.1773411305         -0.3477
C949       C    0.5035203616    0.4769604529   -0.1462861805         -0.3477
C950       C    0.5012445055    0.5244260014   -0.2225442343         -0.3514
H951       H    0.4960819953    0.5630193509   -0.1742146482          0.6447
C952       C    0.4947291276    0.5545685137   -0.1203434648          0.6445
C953       C    0.4809774970    0.4237285391   -0.1481941352          0.6315
H954       H    0.5071883877    0.4654115580   -0.1946153620         -0.3452
C955       C    0.4992572250    0.4961176012   -0.2466415879         -0.3536
N956       N    0.5015124514    0.5094374861   -0.2794315416         -0.3522
N957       N    0.5201404434    0.5255216393   -0.2689957489         -0.3348
N958       N    0.5166211325    0.5380448219   -0.2393495423         -0.3375
C959       C    0.5004586508    0.5060937473   -0.3116609301         -0.3538
H960       H    0.4761465861    0.4837636448   -0.2438156308          0.6251
H961       H    0.5184548268    0.4781832872   -0.2424504857         -0.3357
H962       H    0.4814735780    0.5413471941   -0.2271032220          0.6302
C963       C    0.4960747588    0.5317306064   -0.3307054886          0.6418
C964       C    0.4960032083    0.5288442810   -0.3626038749          0.6411
C965       C    0.5000000000    0.5000000000   -0.3765474737          0.6446
C966       C    0.5034917588    0.4740994010   -0.3575673227         -0.3517
C967       C    0.5037547537    0.4771793510   -0.3255461631         -0.3509
H968       H    0.4926669201    0.5505548454   -0.3768303986          0.6377
H969       H    0.4929076306    0.5555157608   -0.3201625117           0.639
H970       H    0.5070785245    0.4558098064   -0.3106701802         -0.3475
H971       H    0.5066297685    0.4501720223   -0.3678701059          -0.349
N972       N    0.4944373588    0.5785328287   -0.1066563703          0.6444
H973       H    0.4584090697    0.4372788544   -0.1495612409          0.6106
H974       H    0.4787869887    0.4050461665   -0.1297364049          0.6299
H975       H    0.4862731833    0.4125155870   -0.1714236748           0.636
O976       O    0.5072920418    0.4448677313   -0.1392920798          -0.344
C911       C    0.5000000000    0.5000000000    0.1234525263         -0.3506
C912       C    0.4689466775    0.5024296990    0.1332071318          -0.353
C913       C    0.4616861654    0.5019202344    0.1649125215         -0.3531
C914       C    0.4847120868    0.4988064749    0.1871052512         -0.3507
C915       C    0.5151872246    0.4957512447    0.1773411305         -0.3477
C916       C    0.5230297032    0.4964158061    0.1462861805         -0.3477
C917       C    0.4755706437    0.4988231871    0.2225442343         -0.3514
H918       H    0.4369917484    0.5040926252    0.1742146482          0.6447
C919       C    0.4454463022    0.5054220691    0.1203434648          0.6445
C920       C    0.5763238820    0.5188110710    0.1481941352          0.6315
H921       H    0.5345683891    0.4927157905    0.1946153620         -0.3452
C922       C    0.5038844422    0.5007320135    0.2466415879         -0.3536
N923       N    0.4905583590    0.4985137070    0.2794315416         -0.3522
N924       N    0.4744226467    0.4799303580    0.2689957489         -0.3348
N925       N    0.4619092647    0.4834843588    0.2393495423         -0.3375
C926       C    0.4939050051    0.4995582376    0.3116609301         -0.3538
H927       H    0.5163023940    0.5238083291    0.2438156308          0.6251
H928       H    0.5217654881    0.4814847868    0.2424504857         -0.3357
H929       H    0.4587043039    0.5186409298    0.2271032220          0.6302
C930       C    0.4682803928    0.5040131561    0.3307054886          0.6418
C931       C    0.4711669054    0.5040767079    0.3626038749          0.6411
C932       C    0.5000000000    0.5000000000    0.3765474737          0.6446
C933       C    0.5258908234    0.4964364804    0.3575673227         -0.3517
C934       C    0.5228101564    0.4961820214    0.3255461631         -0.3509
H935       H    0.4494656697    0.5074731463    0.3768303986          0.6377
H936       H    0.4445041063    0.5072461842    0.3201625117           0.639
H937       H    0.5441704083    0.4927990455    0.3106701802         -0.3475
H938       H    0.5498094143    0.4932321767    0.3678701059          -0.349
N939       N    0.4214828877    0.5057802454    0.1066563703          0.6444
H940       H    0.5628361591    0.5414169615    0.1495612409          0.6106
H941       H    0.5950122531    0.5209497994    0.1297364049          0.6299
H942       H    0.5875221160    0.5134843324    0.1714236748           0.636
O943       O    0.5551118497    0.4925552070    0.1392920798          -0.344
C878       C    0.5000000000    0.8765474737    0.5000000000         -0.3506
C879       C    0.5201253063    0.8667928682    0.5237736055          -0.353
C880       C    0.5239565314    0.8350874785    0.5299620063         -0.3531
C881       C    0.5079691281    0.8128947488    0.5131010606         -0.3507
C882       C    0.4876743310    0.8226588695    0.4901622362         -0.3477
C883       C    0.4836287154    0.8537138195    0.4834110062         -0.3477
C884       C    0.5133268579    0.7774557657    0.5205078814         -0.3514
H885       H    0.5401556056    0.8257853518    0.5487269606          0.6447
C886       C    0.5362915946    0.8796565352    0.5410904483          0.6445
C887       C    0.4706420704    0.8518058648    0.4270801581          0.6315
H888       H    0.4738812160    0.8053846380    0.4762125588         -0.3452
C889       C    0.4983230134    0.7533584121    0.4964205516         -0.3536
N890       N    0.5043138172    0.7205684584    0.5085290464         -0.3522
N891       N    0.4986699496    0.7310042511    0.5324841884         -0.3348
N892       N    0.5088688011    0.7606504577    0.5405587831         -0.3375
C893       C    0.5032047810    0.6883390699    0.5052032198         -0.3538
H894       H    0.5097855293    0.7561843692    0.4728550557          0.6251
H895       H    0.4722540255    0.7575495143    0.4931654927         -0.3357
H896       H    0.5392655075    0.7728967780    0.5226061650          0.6302
C897       C    0.5217995050    0.6692945114    0.5233884690          0.6418
C898       C    0.5201635841    0.6373961251    0.5210094447          0.6411
C899       C    0.5000000000    0.6234525263    0.5000000000          0.6446
C900       C    0.4819728518    0.6424326773    0.4810776498         -0.3517
C901       C    0.4835673914    0.6744538369    0.4837258005         -0.3509
H902       H    0.5356059056    0.6231696014    0.5366303963          0.6377
H903       H    0.5383223429    0.6798374883    0.5407884718           0.639
H904       H    0.4683353343    0.6893298198    0.4683736239         -0.3475
H905       H    0.4653901260    0.6321298941    0.4635454007          -0.349
N906       N    0.5505914184    0.8933436297    0.5603229354          0.6444
H907       H    0.4968676165    0.8504387591    0.4248073424          0.6106
H908       H    0.4614518614    0.8702635951    0.4106676802          0.6299
H909       H    0.4597738175    0.8285763252    0.4211089216           0.636
O910       O    0.4617410383    0.8607079202    0.4596392174          -0.344
C845       C    0.5000000000    1.1234525263    0.5000000000         -0.3506
C846       C    0.4689559202    1.1332071318    0.4974549296          -0.353
C847       C    0.4616935652    1.1649125215    0.4979374121         -0.3531
C848       C    0.4847077575    1.1871052512    0.5011367100         -0.3507
C849       C    0.5151713322    1.1773411305    0.5043051587         -0.3477
C850       C    0.5230162261    1.1462861805    0.5036697430         -0.3477
C851       C    0.4755664395    1.2225442343    0.5010860300         -0.3514
H852       H    0.4370073908    1.1742146482    0.4956732766          0.6447
C853       C    0.4454668261    1.1203434648    0.4943752573          0.6445
C854       C    0.5763932534    1.1481941352    0.4814726636          0.6315
H855       H    0.5345410838    1.1946153620    0.5074126087         -0.3452
C856       C    0.5038871354    1.2466415879    0.4992824254         -0.3536
N857       N    0.4905529014    1.2794315416    0.5014511995         -0.3522
N858       N    0.4743482484    1.2689957489    0.5199744630         -0.3348
N859       N    0.4618481588    1.2393495423    0.5163739894         -0.3375
C860       C    0.4939034057    1.3116609301    0.5004191115         -0.3538
H861       H    0.5163907486    1.2438156308    0.4762524118          0.6251
H862       H    0.5216965389    1.2424504857    0.5185959617         -0.3357
H863       H    0.4587738551    1.2271032220    0.4812057521          0.6302
C864       C    0.4682955239    1.3307054886    0.4958690077          0.6418
C865       C    0.4711822528    1.3626038749    0.4958161820          0.6411
C866       C    0.5000000000    1.3765474737    0.5000000000          0.6446
C867       C    0.5258774033    1.3575673227    0.5036597003         -0.3517
C868       C    0.5227958121    1.3255461631    0.5039027103         -0.3509
H869       H    0.4494937874    1.3768303986    0.4923391295          0.6377
H870       H    0.4445314148    1.3201625117    0.4925476539           0.639
H871       H    0.5441433461    1.3106701802    0.5073650335         -0.3475
H872       H    0.5497839225    1.3678701059    0.5069528588          -0.349
N873       N    0.4215049081    1.1066563703    0.4939280402          0.6444
H874       H    0.5629896227    1.1495612409    0.4588168114          0.6106
H875       H    0.5950894426    1.1297364049    0.4794033923          0.6299
H876       H    0.5875716170    1.1714236748    0.4868409759           0.636
O877       O    0.5550838058    1.1392920798    0.5076495266          -0.344
C812       C    0.5000000000    0.8765474737    0.0000000000         -0.3506
C813       C    0.4692077674    0.8667928682   -0.0046958160          -0.353
C814       C    0.4622533459    0.8350874785   -0.0068430494         -0.3531
C815       C    0.4853840662    0.8128947488   -0.0046388869         -0.3507
C816       C    0.5157555155    0.8226588695   -0.0006836978         -0.3477
C817       C    0.5232413848    0.8537138195    0.0017469141         -0.3477
C818       C    0.4764783378    0.7774557657   -0.0067014735         -0.3514
H819       H    0.4377119235    0.8257853518   -0.0103433495          0.6447
C820       C    0.4456426296    0.8796565352   -0.0071260833          0.6445
C821       C    0.5700462806    0.8518058648    0.0356750605          0.6315
H822       H    0.5353191679    0.8053846380    0.0007678620         -0.3452
C823       C    0.5036161982    0.7533584121    0.0015961973         -0.3536
N824       N    0.4911437385    0.7205684584   -0.0035944798         -0.3522
N825       N    0.4796568490    0.7310042511   -0.0253603576         -0.3348
N826       N    0.4666631131    0.7606504577   -0.0247451508         -0.3375
C827       C    0.4941651617    0.6883390699   -0.0018162541         -0.3538
H828       H    0.5104609883    0.7561843692    0.0268918632          0.6251
H829       H    0.5254057653    0.7575495143   -0.0130803929         -0.3357
H830       H    0.4555471491    0.7728967780    0.0087614395          0.6302
C831       C    0.4681988452    0.6692945114   -0.0033053673          0.6418
C832       C    0.4709952758    0.6373961251   -0.0025870571          0.6411
C833       C    0.5000000000    0.6234525263    0.0000000000          0.6446
C834       C    0.5260228391    0.6424326773    0.0024176957         -0.3517
C835       C    0.5230807555    0.6744538369    0.0014693276         -0.3509
H836       H    0.4490902489    0.6231696014   -0.0042146997          0.6377
H837       H    0.4443102971    0.6798374883   -0.0055640273           0.639
H838       H    0.5446506712    0.6893298198    0.0030325365         -0.3475
H839       H    0.5500434308    0.6321298941    0.0047366889          -0.349
N840       N    0.4222256283    0.8933436297   -0.0122268258          0.6444
H841       H    0.5517711311    0.8504387591    0.0546214022          0.6106
H842       H    0.5877586275    0.8702635951    0.0420076855          0.6299
H843       H    0.5821624660    0.8285763252    0.0330344849           0.636
O844       O    0.5553608870    0.8607079202    0.0052832865          -0.344
C779       C    0.5000000000    1.3765474737    0.0000000000         -0.3506
C780       C    0.5307459322    1.3667928682    0.0049899827          -0.353
C781       C    0.5376795078    1.3350874785    0.0072036041         -0.3531
C782       C    0.5145709169    1.3128947488    0.0047784068         -0.3507
C783       C    0.4842386682    1.3226588695    0.0005330399         -0.3477
C784       C    0.4767763783    1.3537138195   -0.0019690277         -0.3477
C785       C    0.5234565195    1.2774557657    0.0069260401         -0.3514
H786       H    0.5621863449    1.3257853518    0.0109383662          0.6447
C787       C    0.5542867591    1.3796565352    0.0076454275          0.6445
C788       C    0.4302979830    1.3518058648   -0.0363430899          0.6315
H789       H    0.4646897871    1.3053846380   -0.0011054869         -0.3452
C790       C    0.4963992271    1.2533584121   -0.0016306961         -0.3536
N791       N    0.5088214926    1.2205684584    0.0036789836         -0.3458
N792       N    0.5200997700    1.2310042511    0.0255536842         -0.3348
N793       N    0.5330987936    1.2606504577    0.0250627289         -0.3375
C794       C    0.5058172078    1.1883390699    0.0018719536         -0.3538
H795       H    0.4897965827    1.2561843692   -0.0269906439          0.6251
H796       H    0.4744703439    1.2575495143    0.0128369097         -0.3357
H797       H    0.5445345809    1.2728967780   -0.0083360589          0.6302
C798       C    0.5317681014    1.1692945114    0.0036092432          0.6418
C799       C    0.5289786658    1.1373961251    0.0028642312          0.6411
C800       C    0.5000000000    1.1234525263    0.0000000000          0.6446
C801       C    0.4740014639    1.1424326773   -0.0026663700         -0.3517
C802       C    0.4769343465    1.1744538369   -0.0016899181         -0.3509
H803       H    0.5508671310    1.1231696014    0.0047012169          0.6377
H804       H    0.5556339643    1.1798374883    0.0060961803           0.639
H805       H    0.4553803611    1.1893298198   -0.0034592694         -0.3475
H806       H    0.4500041401    1.1321298941   -0.0052149000          -0.349
N807       N    0.5776539259    1.3933436297    0.0129698093          0.6444
H808       H    0.4487534290    1.3504387591   -0.0551138508          0.6106
H809       H    0.4126469870    1.3702635951   -0.0428447599          0.6299
H810       H    0.4181571067    1.3285763252   -0.0338184688           0.636
O811       O    0.4446921526    1.3607079202   -0.0058123088          -0.344
C746       C    0.5000000000    1.0000000000   -0.1234525263         -0.3506
C747       C    0.5023436366    0.9689400637   -0.1332071318          -0.353
C748       C    0.5018140540    0.9616809913   -0.1649125215         -0.3531
C749       C    0.4987641145    0.9847154530   -0.1871052512         -0.3507
C750       C    0.4957933470    1.0151989402   -0.1773411305         -0.3477
C751       C    0.4964796384    1.0230395471   -0.1462861805         -0.3477
C752       C    0.4987554945    0.9755739986   -0.2225442343         -0.3514
H753       H    0.5039180047    0.9369806491   -0.1742146482          0.6447
C754       C    0.5052708724    0.9454314863   -0.1203434648          0.6445
C755       C    0.5190225030    1.0762714609   -0.1481941352          0.6315
H756       H    0.4928116123    1.0345884420   -0.1946153620         -0.3452
C757       C    0.5007427750    1.0038823988   -0.2466415879         -0.3536
N758       N    0.4984875486    0.9905625139   -0.2794315416         -0.3522
N759       N    0.4798595566    0.9744783607   -0.2689957489         -0.3348
N760       N    0.4833788675    0.9619551781   -0.2393495423         -0.3375
C761       C    0.4995413492    0.9939062527   -0.3116609301         -0.3538
H762       H    0.5238534139    1.0162363552   -0.2438156308          0.6251
H763       H    0.4815451732    1.0218167128   -0.2424504857         -0.3357
H764       H    0.5185264220    0.9586528059   -0.2271032220          0.6302
C765       C    0.5039252412    0.9682693936   -0.3307054886          0.6418
C766       C    0.5039967917    0.9711557190   -0.3626038749          0.6411
C767       C    0.5000000000    1.0000000000   -0.3765474737          0.6446
C768       C    0.4965082412    1.0259005990   -0.3575673227         -0.3517
C769       C    0.4962452463    1.0228206490   -0.3255461631         -0.3509
H770       H    0.5073330799    0.9494451546   -0.3768303986          0.6377
H771       H    0.5070923694    0.9444842392   -0.3201625117           0.639
H772       H    0.4929214755    1.0441901936   -0.3106701802         -0.3475
H773       H    0.4933702315    1.0498279777   -0.3678701059          -0.349
N774       N    0.5055626412    0.9214671713   -0.1066563703          0.6444
H775       H    0.5415909303    1.0627211456   -0.1495612409          0.6106
H776       H    0.5212130113    1.0949538335   -0.1297364049          0.6299
H777       H    0.5137268167    1.0874844130   -0.1714236748           0.636
O778       O    0.4927079582    1.0551322687   -0.1392920798          -0.344
C713       C    0.5000000000    1.0000000000    0.3765474737         -0.3506
C714       C    0.4689466775    0.9975703010    0.3667928682          -0.353
C715       C    0.4616861654    0.9980797656    0.3350874785         -0.3531
C716       C    0.4847120868    1.0011935251    0.3128947488         -0.3507
C717       C    0.5151872246    1.0042487553    0.3226588695         -0.3477
C718       C    0.5230297032    1.0035841939    0.3537138195         -0.3477
C719       C    0.4755706437    1.0011768129    0.2774557657         -0.3514
H720       H    0.4369917484    0.9959073748    0.3257853518          0.6447
C721       C    0.4454463022    0.9945779309    0.3796565352          0.6445
C722       C    0.5763238820    0.9811889290    0.3518058648          0.6315
H723       H    0.5345683891    1.0072842095    0.3053846380         -0.3452
C724       C    0.5038844422    0.9992679865    0.2533584121         -0.3536
N725       N    0.4905583590    1.0014862930    0.2205684584         -0.3522
N726       N    0.4744226467    1.0200696420    0.2310042511         -0.3348
N727       N    0.4619092647    1.0165156412    0.2606504577         -0.3375
C728       C    0.4939050051    1.0004417624    0.1883390699         -0.3538
H729       H    0.5163023940    0.9761916709    0.2561843692          0.6251
H730       H    0.5217654881    1.0185152132    0.2575495143         -0.3357
H731       H    0.4587043039    0.9813590702    0.2728967780          0.6302
C732       C    0.4682803928    0.9959868439    0.1692945114          0.6418
C733       C    0.4711669054    0.9959232921    0.1373961251          0.6411
C734       C    0.5000000000    1.0000000000    0.1234525263          0.6446
C735       C    0.5258908234    1.0035635196    0.1424326773         -0.3517
C736       C    0.5228101564    1.0038179786    0.1744538369         -0.3509
H737       H    0.4494656697    0.9925268537    0.1231696014          0.6377
H738       H    0.4445041063    0.9927538158    0.1798374883           0.639
H739       H    0.5441704083    1.0072009545    0.1893298198         -0.3475
H740       H    0.5498094143    1.0067678233    0.1321298941          -0.349
N741       N    0.4214828877    0.9942197546    0.3933436297          0.6444
H742       H    0.5628361591    0.9585830385    0.3504387591          0.6106
H743       H    0.5950122531    0.9790502006    0.3702635951          0.6299
H744       H    0.5875221160    0.9865156676    0.3285763252           0.636
O745       O    0.5551118497    1.0074447930    0.3607079202          -0.344
C680       C    0.8765474737    0.5000000000    0.5000000000         -0.3506
C681       C    0.8667928682    0.4767471517    0.5207247997          -0.353
C682       C    0.8350874785    0.4720879727    0.5263164578         -0.3531
C683       C    0.8128947488    0.4902766713    0.5118575575         -0.3507
C684       C    0.8226588695    0.5135805768    0.4919830401         -0.3477
C685       C    0.8537138195    0.5185307659    0.4858640745         -0.3477
C686       C    0.7774557657    0.4839355653    0.5184421331         -0.3514
H687       H    0.8257853518    0.4534233556    0.5426310398          0.6447
C688       C    0.8796565352    0.4583175569    0.5356100929          0.6445
C689       C    0.8518058648    0.5392691682    0.4319035699          0.6315
H690       H    0.8053846380    0.5291893381    0.4800998548         -0.3452
C691       C    0.7533584121    0.5021611850    0.4966903150         -0.3536
N692       N    0.7205684584    0.4945355691    0.5078417885         -0.3522
N693       N    0.7310042511    0.4967731595    0.5323508738         -0.3348
N694       N    0.7606504577    0.4855451190    0.5389194930         -0.3375
C695       C    0.6883390699    0.4960989113    0.5047037882         -0.3538
H696       H    0.7561843692    0.4941076479    0.4717531458          0.6251
H697       H    0.7575495143    0.5284291932    0.4971137285         -0.3357
H698       H    0.7728967780    0.4579584209    0.5168915484          0.6302
C699       C    0.6692945114    0.4751432844    0.5201092663          0.6418
C700       C    0.6373961251    0.4770958948    0.5179824597          0.6411
C701       C    0.6234525263    0.5000000000    0.5000000000          0.6446
C702       C    0.6424326773    0.5204967350    0.4837852763         -0.3517
C703       C    0.6744538369    0.5185474543    0.4861843518         -0.3509
H704       H    0.6231696014    0.4596203666    0.5312898013          0.6377
H705       H    0.6798374883    0.4563490130    0.5350270287           0.639
H706       H    0.6893298198    0.5357771895    0.4731137316         -0.3475
H707       H    0.6321298941    0.5393688038    0.4687449448          -0.349
N708       N    0.8933436297    0.4414681208    0.5526532742          0.6444
H709       H    0.8504387591    0.5136193676    0.4259847285          0.6106
H710       H    0.8702635951    0.5506647666    0.4169379523          0.6299
H711       H    0.8285763252    0.5508658161    0.4275112645           0.636
O712       O    0.8607079202    0.5435284046    0.4653875902          -0.344
C647       C    1.1234525263    0.5000000000    0.5000000000         -0.3506
C648       C    1.1332071318    0.5207247997    0.4767471517          -0.353
C649       C    1.1649125215    0.5263164578    0.4720879727         -0.3531
C650       C    1.1871052512    0.5118575575    0.4902766713         -0.3507
C651       C    1.1773411305    0.4919830401    0.5135805768         -0.3477
C652       C    1.1462861805    0.4858640745    0.5185307659         -0.3477
C653       C    1.2225442343    0.5184421331    0.4839355653         -0.3514
H654       H    1.1742146482    0.5426310398    0.4534233556          0.6447
C655       C    1.1203434648    0.5356100929    0.4583175569          0.6445
C656       C    1.1481941352    0.4319035699    0.5392691682          0.6315
H657       H    1.1946153620    0.4800998548    0.5291893381         -0.3452
C658       C    1.2466415879    0.4966903150    0.5021611850         -0.3536
N659       N    1.2794315416    0.5078417885    0.4945355691         -0.3522
N660       N    1.2689957489    0.5323508738    0.4967731595         -0.3348
N661       N    1.2393495423    0.5389194930    0.4855451190         -0.3375
C662       C    1.3116609301    0.5047037882    0.4960989113         -0.3538
H663       H    1.2438156308    0.4717531458    0.4941076479          0.6251
H664       H    1.2424504857    0.4971137285    0.5284291932         -0.3357
H665       H    1.2271032220    0.5168915484    0.4579584209          0.6302
C666       C    1.3307054886    0.5201092663    0.4751432844          0.6418
C667       C    1.3626038749    0.5179824597    0.4770958948          0.6411
C668       C    1.3765474737    0.5000000000    0.5000000000          0.6446
C669       C    1.3575673227    0.4837852763    0.5204967350         -0.3517
C670       C    1.3255461631    0.4861843518    0.5185474543         -0.3509
H671       H    1.3768303986    0.5312898013    0.4596203666          0.6377
H672       H    1.3201625117    0.5350270287    0.4563490130           0.639
H673       H    1.3106701802    0.4731137316    0.5357771895         -0.3475
H674       H    1.3678701059    0.4687449448    0.5393688038          -0.349
N675       N    1.1066563703    0.5526532742    0.4414681208          0.6444
H676       H    1.1495612409    0.4259847285    0.5136193676          0.6106
H677       H    1.1297364049    0.4169379523    0.5506647666          0.6299
H678       H    1.1714236748    0.4275112645    0.5508658161           0.636
O679       O    1.1392920798    0.4653875902    0.5435284046          -0.344
C614       C    0.6234525263    0.5000000000    0.0000000000         -0.3506
C615       C    0.6332071318    0.5272975368    0.0150018919          -0.353
C616       C    0.6649125215    0.5330888573    0.0194104286         -0.3531
C617       C    0.6871052512    0.5121280946    0.0093837153         -0.3507
C618       C    0.6773411305    0.4849708808   -0.0047780003         -0.3477
C619       C    0.6462861805    0.4787780313   -0.0096354408         -0.3477
C620       C    0.7225442343    0.5197807487    0.0143840300         -0.3514
H621       H    0.6742146482    0.5549283468    0.0311394617          0.6447
C622       C    0.6203434648    0.5485884225    0.0253903520          0.6445
C623       C    0.6481941352    0.4465011747   -0.0575939846          0.6315
H624       H    0.6946153620    0.4671005816   -0.0128709559         -0.3452
C625       C    0.7466415879    0.4971536051   -0.0027427671         -0.3536
N626       N    0.7794315416    0.5070792279    0.0064216964         -0.3522
N627       N    0.7689957489    0.5103774857    0.0308107014         -0.3348
N628       N    0.7393495423    0.5227898211    0.0347029476         -0.3375
C629       C    0.8116609301    0.5048539262    0.0037126159         -0.3538
H630       H    0.7438156308    0.4994283934   -0.0288492262          0.6251
H631       H    0.7424504857    0.4716450847    0.0035423682         -0.3357
H632       H    0.7271032220    0.5447537780    0.0070652766          0.6302
C633       C    0.8307054886    0.5287232032    0.0140433792          0.6418
C634       C    0.8626038749    0.5263445466    0.0124069237          0.6411
C635       C    0.8765474737    0.5000000000    0.0000000000          0.6446
C636       C    0.8575673227    0.4763970868   -0.0112221165         -0.3517
C637       C    0.8255461631    0.4788333660   -0.0093195387         -0.3509
H638       H    0.8768303986    0.5463527480    0.0214706591          0.6377
H639       H    0.8201625117    0.5503767945    0.0243819601           0.639
H640       H    0.8106701802    0.4591176577   -0.0182074932         -0.3475
H641       H    0.8678701059    0.4546402657   -0.0216627720          -0.349
N642       N    0.6066563703    0.5688215569    0.0382353432          0.6444
H643       H    0.6495612409    0.4701785840   -0.0690972556          0.6106
H644       H    0.6297364049    0.4320483012   -0.0696332462          0.6299
H645       H    0.6714236748    0.4342160947   -0.0592825929           0.636
O646       O    0.6392920798    0.4498353769   -0.0240052393          -0.344
C581       C    1.1234525263    0.5000000000    0.0000000000         -0.3506
C582       C    1.1332071318    0.5301415625   -0.0078548381          -0.353
C583       C    1.1649125215    0.5373784647   -0.0086306196         -0.3531
C584       C    1.1871052512    0.5152594484   -0.0015146046         -0.3507
C585       C    1.1773411305    0.4857970991    0.0068542920         -0.3477
C586       C    1.1462861805    0.4779600216    0.0075797777         -0.3477
C587       C    1.2225442343    0.5242553787   -0.0031392580         -0.3514
H588       H    1.1742146482    0.5613055640   -0.0151134767          0.6447
C589       C    1.1203434648    0.5527489885   -0.0149348250          0.6445
C590       C    1.1481941352    0.4215571639   -0.0050904639          0.6315
H591       H    1.1946153620    0.4672522191    0.0132520218         -0.3452
C592       C    1.2466415879    0.4960473618   -0.0000372291         -0.3536
N593       N    1.2794315416    0.5095558614   -0.0001979015         -0.3522
N594       N    1.2689957489    0.5287091786    0.0152569524         -0.3348
N595       N    1.2393495423    0.5404021631    0.0095569731         -0.3375
C596       C    1.3116609301    0.5060776523   -0.0006373851         -0.3538
H597       H    1.2438156308    0.4797633998   -0.0205690203          0.6251
H598       H    1.2424504857    0.4818312485    0.0220555222         -0.3357
H599       H    1.2271032220    0.5373722439   -0.0256151159          0.6302
C600       C    1.3307054886    0.5305188871   -0.0095308148          0.6418
C601       C    1.3626038749    0.5276662131   -0.0090855678          0.6411
C602       C    1.3765474737    0.5000000000    0.0000000000          0.6446
C603       C    1.3575673227    0.4751398872    0.0080627664         -0.3517
C604       C    1.3255461631    0.4782172727    0.0077712926         -0.3509
H605       H    1.3768303986    0.5484314739   -0.0162468086          0.6377
H606       H    1.3201625117    0.5533555834   -0.0168962457           0.639
H607       H    1.3106701802    0.4577853093    0.0148592936         -0.3475
H608       H    1.3678701059    0.4521580526    0.0154249557          -0.349
N609       N    1.1066563703    0.5762756504   -0.0195031614          0.6444
H610       H    1.1495612409    0.4308576032   -0.0297166041          0.6106
H611       H    1.1297364049    0.4027840079   -0.0039080978          0.6299
H612       H    1.1714236748    0.4114706835    0.0021232386           0.636
O613       O    1.1392920798    0.4470574110    0.0170241943          -0.344
C548       C    1.0000000000    0.5000000000   -0.1234525263         -0.3506
C549       C    0.9689466775    0.4975703010   -0.1332071318          -0.353
C550       C    0.9616861654    0.4980797656   -0.1649125215         -0.3531
C551       C    0.9847120868    0.5011935251   -0.1871052512         -0.3507
C552       C    1.0151872246    0.5042487553   -0.1773411305         -0.3477
C553       C    1.0230297032    0.5035841939   -0.1462861805         -0.3477
C554       C    0.9755706437    0.5011768129   -0.2225442343         -0.3514
H555       H    0.9369917484    0.4959073748   -0.1742146482          0.6447
C556       C    0.9454463022    0.4945779309   -0.1203434648          0.6445
C557       C    1.0763238820    0.4811889290   -0.1481941352          0.6315
H558       H    1.0345683891    0.5072842095   -0.1946153620         -0.3452
C559       C    1.0038844422    0.4992679865   -0.2466415879         -0.3536
N560       N    0.9905583590    0.5014862930   -0.2794315416         -0.3522
N561       N    0.9744226467    0.5200696420   -0.2689957489         -0.3348
N562       N    0.9619092647    0.5165156412   -0.2393495423         -0.3375
C563       C    0.9939050051    0.5004417624   -0.3116609301         -0.3538
H564       H    1.0163023940    0.4761916709   -0.2438156308          0.6251
H565       H    1.0217654881    0.5185152132   -0.2424504857         -0.3357
H566       H    0.9587043039    0.4813590702   -0.2271032220          0.6302
C567       C    0.9682803928    0.4959868439   -0.3307054886          0.6418
C568       C    0.9711669054    0.4959232921   -0.3626038749          0.6411
C569       C    1.0000000000    0.5000000000   -0.3765474737          0.6446
C570       C    1.0258908234    0.5035635196   -0.3575673227         -0.3517
C571       C    1.0228101564    0.5038179786   -0.3255461631         -0.3509
H572       H    0.9494656697    0.4925268537   -0.3768303986          0.6377
H573       H    0.9445041063    0.4927538158   -0.3201625117           0.639
H574       H    1.0441704083    0.5072009545   -0.3106701802         -0.3475
H575       H    1.0498094143    0.5067678233   -0.3678701059          -0.349
N576       N    0.9214828877    0.4942197546   -0.1066563703          0.6444
H577       H    1.0628361591    0.4585830385   -0.1495612409          0.6106
H578       H    1.0950122531    0.4790502006   -0.1297364049          0.6299
H579       H    1.0875221160    0.4865156676   -0.1714236748           0.636
O580       O    1.0551118497    0.5074447930   -0.1392920798          -0.344
C515       C    1.0000000000    0.5000000000    0.1234525263         -0.3506
C516       C    1.0310533225    0.4975703010    0.1332071318          -0.353
C517       C    1.0383138346    0.4980797656    0.1649125215         -0.3531
C518       C    1.0152879132    0.5011935251    0.1871052512         -0.3507
C519       C    0.9848127754    0.5042487553    0.1773411305         -0.3477
C520       C    0.9769702968    0.5035841939    0.1462861805         -0.3477
C521       C    1.0244293563    0.5011768129    0.2225442343         -0.3514
H522       H    1.0630082516    0.4959073748    0.1742146482          0.6447
C523       C    1.0545536978    0.4945779309    0.1203434648          0.6445
C524       C    0.9236761180    0.4811889290    0.1481941352          0.6315
H525       H    0.9654316109    0.5072842095    0.1946153620         -0.3452
C526       C    0.9961155578    0.4992679865    0.2466415879         -0.3536
N527       N    1.0094416410    0.5014862930    0.2794315416         -0.3522
N528       N    1.0255773533    0.5200696420    0.2689957489         -0.3348
N529       N    1.0380907353    0.5165156412    0.2393495423         -0.3375
C530       C    1.0060949949    0.5004417624    0.3116609301         -0.3538
H531       H    0.9836976060    0.4761916709    0.2438156308          0.6251
H532       H    0.9782345119    0.5185152132    0.2424504857         -0.3357
H533       H    1.0412956961    0.4813590702    0.2271032220          0.6302
C534       C    1.0317196072    0.4959868439    0.3307054886          0.6418
C535       C    1.0288330946    0.4959232921    0.3626038749          0.6411
C536       C    1.0000000000    0.5000000000    0.3765474737          0.6446
C537       C    0.9741091766    0.5035635196    0.3575673227         -0.3517
C538       C    0.9771898436    0.5038179786    0.3255461631         -0.3509
H539       H    1.0505343303    0.4925268537    0.3768303986          0.6377
H540       H    1.0554958937    0.4927538158    0.3201625117           0.639
H541       H    0.9558295917    0.5072009545    0.3106701802         -0.3475
H542       H    0.9501905857    0.5067678233    0.3678701059          -0.349
N543       N    1.0785171123    0.4942197546    0.1066563703          0.6444
H544       H    0.9371638409    0.4585830385    0.1495612409          0.6106
H545       H    0.9049877469    0.4790502006    0.1297364049          0.6299
H546       H    0.9124778840    0.4865156676    0.1714236748           0.636
O547       O    0.9448881503    0.5074447930    0.1392920798          -0.344
C482       C    1.0000000000   -0.1234525263    0.5000000000         -0.3506
C483       C    0.9975703010   -0.1332071318    0.4689466775          -0.353
C484       C    0.9980797656   -0.1649125215    0.4616861654         -0.3531
C485       C    1.0011935251   -0.1871052512    0.4847120868         -0.3507
C486       C    1.0042487553   -0.1773411305    0.5151872246         -0.3477
C487       C    1.0035841939   -0.1462861805    0.5230297032         -0.3477
C488       C    1.0011768129   -0.2225442343    0.4755706437         -0.3514
H489       H    0.9959073748   -0.1742146482    0.4369917484          0.6447
C490       C    0.9945779309   -0.1203434648    0.4454463022          0.6445
C491       C    0.9811889290   -0.1481941352    0.5763238820          0.6315
H492       H    1.0072842095   -0.1946153620    0.5345683891         -0.3452
C493       C    0.9992679865   -0.2466415879    0.5038844422         -0.3536
N494       N    1.0014862930   -0.2794315416    0.4905583590         -0.3522
N495       N    1.0200696420   -0.2689957489    0.4744226467         -0.3348
N496       N    1.0165156412   -0.2393495423    0.4619092647         -0.3375
C497       C    1.0004417624   -0.3116609301    0.4939050051         -0.3538
H498       H    0.9761916709   -0.2438156308    0.5163023940          0.6251
H499       H    1.0185152132   -0.2424504857    0.5217654881         -0.3357
H500       H    0.9813590702   -0.2271032220    0.4587043039          0.6302
C501       C    0.9959868439   -0.3307054886    0.4682803928          0.6418
C502       C    0.9959232921   -0.3626038749    0.4711669054          0.6411
C503       C    1.0000000000   -0.3765474737    0.5000000000          0.6446
C504       C    1.0035635196   -0.3575673227    0.5258908234         -0.3517
C505       C    1.0038179786   -0.3255461631    0.5228101564         -0.3509
H506       H    0.9925268537   -0.3768303986    0.4494656697          0.6377
H507       H    0.9927538158   -0.3201625117    0.4445041063           0.639
H508       H    1.0072009545   -0.3106701802    0.5441704083         -0.3475
H509       H    1.0067678233   -0.3678701059    0.5498094143          -0.349
N510       N    0.9942197546   -0.1066563703    0.4214828877          0.6444
H511       H    0.9585830385   -0.1495612409    0.5628361591          0.6106
H512       H    0.9790502006   -0.1297364049    0.5950122531          0.6299
H513       H    0.9865156676   -0.1714236748    0.5875221160           0.636
O514       O    1.0074447930   -0.1392920798    0.5551118497          -0.344
C449       C    1.0000000000    0.1234525263    0.5000000000         -0.3506
C450       C    0.9836230760    0.1332071318    0.4735045544          -0.353
C451       C    0.9789244196    0.1649125215    0.4679460279         -0.3531
C452       C    0.9900089183    0.1871052512    0.4883671553         -0.3507
C453       C    1.0055395941    0.1773411305    0.5147653855         -0.3477
C454       C    1.0107070820    0.1462861805    0.5207019823         -0.3477
C455       C    0.9846241617    0.2225442343    0.4809799597         -0.3514
H456       H    0.9660949305    0.1742146482    0.4467342923          0.6447
C457       C    0.9721604371    0.1203434648    0.4527722166          0.6445
C458       C    1.0602520107    0.1481941352    0.5504864989          0.6315
H459       H    1.0145349694    0.1946153620    0.5321988804         -0.3452
C460       C    1.0028846067    0.2466415879    0.5027025505         -0.3536
N461       N    0.9932250141    0.2794315416    0.4932580998         -0.3522
N462       N    0.9686993524    0.2689957489    0.4912101767         -0.3348
N463       N    0.9641780465    0.2393495423    0.4790129047         -0.3375
C464       C    0.9960442468    0.3116609301    0.4953420892         -0.3538
H465       H    1.0288407542    0.2438156308    0.4990969612          0.6251
H466       H    0.9979109026    0.2424504857    0.5284988642         -0.3357
H467       H    0.9906574921    0.2271032220    0.4556656305          0.6302
C468       C    0.9845075001    0.3307054886    0.4720317796          0.6418
C469       C    0.9862633434    0.3626038749    0.4743237239          0.6411
C470       C    1.0000000000    0.3765474737    0.5000000000          0.6446
C471       C    1.0124133274    0.3575673227    0.5229987546         -0.3517
C472       C    1.0103887654    0.3255461631    0.5206628592         -0.3509
H473       H    0.9761892312    0.3768303986    0.4548047155          0.6377
H474       H    0.9730761448    0.3201625117    0.4509346617           0.639
H475       H    1.0202723829    0.3106701802    0.5398987370         -0.3475
H476       H    1.0239518980    0.3678701059    0.5441937526          -0.349
N477       N    0.9582985155    0.1066563703    0.4332217524          0.6444
H478       H    1.0705305871    0.1495612409    0.5262523118          0.6106
H479       H    1.0730139431    0.1297364049    0.5643054154          0.6299
H480       H    1.0625660552    0.1714236748    0.5626692649           0.636
O481       O    1.0265367866    0.1392920798    0.5488726905          -0.344
C416       C    0.8765474737   -0.0000000000    0.5000000000         -0.3506
C417       C    0.8667928682   -0.0141733376    0.5277367766          -0.353
C418       C    0.8350874785   -0.0164923219    0.5346358274         -0.3531
C419       C    0.8128947488   -0.0047713957    0.5145732143         -0.3507
C420       C    0.8226588695    0.0097573407    0.4876105684         -0.3477
C421       C    0.8537138195    0.0121567112    0.4801146273         -0.3477
C422       C    0.7774557657   -0.0082987950    0.5230067021         -0.3514
H423       H    0.8257853518   -0.0279851264    0.5566005481          0.6447
C424       C    0.8796565352   -0.0259644663    0.5482840685          0.6445
C425       C    0.8518058648    0.0119547245    0.4223065259          0.6315
H426       H    0.8053846380    0.0200057242    0.4708829220         -0.3452
C427       C    0.7533584121    0.0008164921    0.4961324329         -0.3536
N428       N    0.7205684584   -0.0022550683    0.5092880740         -0.3522
N429       N    0.7310042511    0.0087031174    0.5313248668         -0.3348
N430       N    0.7606504577    0.0006144539    0.5415125639         -0.3375
C431       C    0.6883390699   -0.0019337212    0.5057969681         -0.3538
H432       H    0.7561843692   -0.0157181532    0.4758019785          0.6251
H433       H    0.7575495143    0.0254562031    0.4870180389         -0.3357
H434       H    0.7728967780   -0.0330754084    0.5309650793          0.6302
C435       C    0.6692945114   -0.0158912506    0.5277435949          0.6418
C436       C    0.6373961251   -0.0148409818    0.5250541843          0.6411
C437       C    0.6234525263   -0.0000000000    0.5000000000          0.6446
C438       C    0.6424326773    0.0132368118    0.4774651332         -0.3517
C439       C    0.6744538369    0.0122882090    0.4804071412         -0.3509
H440       H    0.6231696014   -0.0263139742    0.5437851712          0.6377
H441       H    0.6798374883   -0.0280105684    0.5484531677           0.639
H442       H    0.6893298198    0.0236177726    0.4619857982         -0.3475
H443       H    0.6321298941    0.0253842803    0.4566131414          -0.349
N444       N    0.8933436297   -0.0355014458    0.5702708724          0.6444
H445       H    0.8504387591   -0.0140980673    0.4260744152          0.6106
H446       H    0.8702635951    0.0171598456    0.4042306832          0.6299
H447       H    0.8285763252    0.0211748270    0.4140141016           0.636
O448       O    0.8607079202    0.0280463932    0.4519777057          -0.344
C383       C    1.1234525263   -0.0000000000    0.5000000000         -0.3506
C384       C    1.1332071318    0.0247754563    0.5188782690          -0.353
C385       C    1.1649125215    0.0298502089    0.5240956894         -0.3531
C386       C    1.1871052512    0.0106050486    0.5110759982         -0.3507
C387       C    1.1773411305   -0.0141560296    0.4930494216         -0.3477
C388       C    1.1462861805   -0.0195614198    0.4873285940         -0.3477
C389       C    1.2225442343    0.0174329995    0.5171542667         -0.3514
H390       H    1.1742146482    0.0497123619    0.5389290435          0.6447
C391       C    1.1203434648    0.0442935401    0.5323045985          0.6445
C392       C    1.1481941352   -0.0443816881    0.4351196708          0.6315
H393       H    1.1946153620   -0.0306311050    0.4823997545         -0.3452
C394       C    1.2466415879   -0.0024089227    0.4968660207         -0.3536
N395       N    1.2794315416    0.0060503923    0.5073990814         -0.3522
N396       N    1.2689957489    0.0057012133    0.5320076194         -0.3348
N397       N    1.2393495423    0.0174004475    0.5376947601         -0.3375
C398       C    1.3116609301    0.0042507295    0.5043903776         -0.3538
H399       H    1.2438156308    0.0037061664    0.4713841143          0.6251
H400       H    1.2424504857   -0.0285668798    0.4993050404         -0.3357
H401       H    1.2271032220    0.0432144071    0.5136137355          0.6302
C402       C    1.3307054886    0.0263273285    0.5181414078          0.6418
C403       C    1.3626038749    0.0242171859    0.5161708007          0.6411
C404       C    1.3765474737   -0.0000000000    0.5000000000          0.6446
C405       C    1.3575673227   -0.0216811955    0.4854068793         -0.3517
C406       C    1.3255461631   -0.0195534681    0.4876492073         -0.3509
H407       H    1.3768303986    0.0426628644    0.5280970898          0.6377
H408       H    1.3201625117    0.0462115053    0.5315721108           0.639
H409       H    1.3106701802   -0.0377359037    0.4759400688         -0.3475
H410       H    1.3678701059   -0.0416523510    0.4718599423          -0.349
N411       N    1.1066563703    0.0624018122    0.5480037706          0.6444
H412       H    1.1495612409   -0.0192620524    0.4272489112          0.6106
H413       H    1.1297364049   -0.0568927068    0.4210731841          0.6299
H414       H    1.1714236748   -0.0562813444    0.4316307212           0.636
O415       O    1.1392920798   -0.0460574504    0.4688318723          -0.344
C350       C   -0.0000000000   -0.1234525263    0.0000000000         -0.3506
C351       C   -0.0308061099   -0.1332071318    0.0046038971          -0.353
C352       C   -0.0380844742   -0.1649125215    0.0046054361         -0.3531
C353       C   -0.0153339833   -0.1871052512   -0.0001172452         -0.3507
C354       C    0.0148514513   -0.1773411305   -0.0053045365         -0.3477
C355       C    0.0227212351   -0.1462861805   -0.0051922203         -0.3477
C356       C   -0.0244516954   -0.2225442343    0.0005412289         -0.3514
H357       H   -0.0625654352   -0.1742146482    0.0085062134          0.6447
C358       C   -0.0540384065   -0.1203434648    0.0092387990          0.6445
C359       C    0.0774562318   -0.1481941352    0.0134061003          0.6315
H360       H    0.0339716769   -0.1946153620   -0.0096932145         -0.3452
C361       C    0.0039262501   -0.2466415879    0.0004574880         -0.3536
N362       N   -0.0095226923   -0.2794315416   -0.0008197461         -0.3522
N363       N   -0.0269232885   -0.2689957489   -0.0182243811         -0.3348
N364       N   -0.0391562726   -0.2393495423   -0.0138006099         -0.3375
C365       C   -0.0061109700   -0.3116609301   -0.0000127545         -0.3538
H366       H    0.0179337024   -0.2438156308    0.0226050194          0.6251
H367       H    0.0204118617   -0.2424504857   -0.0199976372         -0.3357
H368       H   -0.0398850500   -0.2271032220    0.0214942217          0.6302
C369       C   -0.0313595790   -0.3307054886    0.0062302253          0.6418
C370       C   -0.0284757274   -0.3626038749    0.0060909638          0.6411
C371       C    0.0000000000   -0.3765474737    0.0000000000          0.6446
C372       C    0.0255767466   -0.3575673227   -0.0053724707         -0.3517
C373       C    0.0224858165   -0.3255461631   -0.0054100141         -0.3509
H374       H   -0.0498849551   -0.3768303986    0.0110026228          0.6377
H375       H   -0.0548502098   -0.3201625117    0.0111245625           0.639
H376       H    0.0435558470   -0.3106701802   -0.0102843041         -0.3475
H377       H    0.0492113473   -0.3678701059   -0.0102481454          -0.349
N378       N   -0.0779175412   -0.1066563703    0.0112785163          0.6444
H379       H    0.0655889073   -0.1495612409    0.0369031547          0.6106
H380       H    0.0962486428   -0.1297364049    0.0142274768          0.6299
H381       H    0.0882528527   -0.1714236748    0.0073062997           0.636
O382       O    0.0544531695   -0.1392920798   -0.0112957183          -0.344
C317       C    0.0000000000    0.1234525263    0.0000000000         -0.3506
C318       C    0.0311410839    0.1332071318    0.0006672064          -0.353
C319       C    0.0383610923    0.1649125215   -0.0002526136         -0.3531
C320       C    0.0151957874    0.1871052512   -0.0020573857         -0.3507
C321       C   -0.0154034644    0.1773411305   -0.0033818628         -0.3477
C322       C   -0.0231957220    0.1462861805   -0.0022742373         -0.3477
C323       C    0.0243235064    0.2225442343   -0.0025583930         -0.3514
H324       H    0.0631389042    0.1742146482    0.0005178113          0.6447
C325       C    0.0547732070    0.1203434648    0.0023239150          0.6445
C326       C   -0.0751360966    0.1481941352    0.0231032108          0.6315
H327       H   -0.0349254272    0.1946153620   -0.0053148631         -0.3452
C328       C   -0.0038367533    0.2466415879    0.0009508202         -0.3536
N329       N    0.0093423178    0.2794315416   -0.0020186012         -0.3522
N330       N    0.0243997336    0.2689957489   -0.0214859148         -0.3348
N331       N    0.0370943016    0.2393495423   -0.0186462680         -0.3375
C332       C    0.0060601957    0.3116609301   -0.0007862216         -0.3538
H333       H   -0.0149279321    0.2438156308    0.0246933479          0.6251
H334       H   -0.0227791004    0.2424504857   -0.0172528889         -0.3357
H335       H    0.0422850849    0.2271032220    0.0162723807          0.6302
C336       C    0.0318959728    0.3307054886    0.0022103897          0.6418
C337       C    0.0290176916    0.3626038749    0.0024373068          0.6411
C338       C    0.0000000000    0.3765474737    0.0000000000          0.6446
C339       C   -0.0260510798    0.3575673227   -0.0020915670         -0.3517
C340       C   -0.0229897671    0.3255461631   -0.0025200801         -0.3509
H341       H    0.0508764452    0.3768303986    0.0045993229          0.6377
H342       H    0.0558171929    0.3201625117    0.0040917447           0.639
H343       H   -0.0445073218    0.3106701802   -0.0046879658         -0.3475
H344       H   -0.0501127492    0.3678701059   -0.0039361849          -0.349
N345       N    0.0787184478    0.1066563703    0.0013244346          0.6444
H346       H   -0.0603898160    0.1495612409    0.0449089936          0.6106
H347       H   -0.0936733566    0.1297364049    0.0262968556          0.6299
H348       H   -0.0866180199    0.1714236748    0.0184191925           0.636
O349       O   -0.0554450128    0.1392920798   -0.0043117838          -0.344
C284       C   -0.1234525263   -0.0000000000    0.0000000000         -0.3506
C285       C   -0.1332071318   -0.0152538278   -0.0271575590          -0.353
C286       C   -0.1649125215   -0.0197157616   -0.0329078405         -0.3531
C287       C   -0.1871052512   -0.0094955321   -0.0120407500         -0.3507
C288       C   -0.1773411305    0.0049168569    0.0149842661         -0.3477
C289       C   -0.1462861805    0.0098313905    0.0211319056         -0.3477
C290       C   -0.2225442343   -0.0145664411   -0.0196468097         -0.3514
H291       H   -0.1742146482   -0.0316463685   -0.0546378689          0.6447
C292       C   -0.1203434648   -0.0258388430   -0.0483514113          0.6445
C293       C   -0.1481941352    0.0580865318    0.0529636308          0.6315
H294       H   -0.1946153620    0.0131748160    0.0327789179         -0.3452
C295       C   -0.2466415879    0.0027689867    0.0028208948         -0.3536
N296       N   -0.2794315416   -0.0064869241   -0.0070195063         -0.3522
N297       N   -0.2689957489   -0.0309054031   -0.0100919569         -0.3348
N298       N   -0.2393495423   -0.0349123312   -0.0224677469         -0.3375
C299       C   -0.3116609301   -0.0037573693   -0.0048193664         -0.3538
H300       H   -0.2438156308    0.0288532801    0.0003046466          0.6251
H301       H   -0.2424504857   -0.0032798548    0.0283864782         -0.3357
H302       H   -0.2271032220   -0.0074790710   -0.0446864887          0.6302
C303       C   -0.3307054886   -0.0143085474   -0.0285920334          0.6418
C304       C   -0.3626038749   -0.0126501528   -0.0262286203          0.6411
C305       C   -0.3765474737   -0.0000000000    0.0000000000          0.6446
C306       C   -0.3575673227    0.0114400286    0.0234980670         -0.3517
C307       C   -0.3255461631    0.0095149899    0.0210794963         -0.3509
H308       H   -0.3768303986   -0.0218986317   -0.0461521005          0.6377
H309       H   -0.3201625117   -0.0248470416   -0.0501490371           0.639
H310       H   -0.3106701802    0.0185849890    0.0407121223         -0.3475
H311       H   -0.3678701059    0.0220815482    0.0451573517          -0.349
N312       N   -0.1066563703   -0.0388704970   -0.0684648276          0.6444
H313       H   -0.1495612409    0.0693702287    0.0291807979          0.6106
H314       H   -0.1297364049    0.0702590073    0.0673044890          0.6299
H315       H   -0.1714236748    0.0598887390    0.0652325605           0.636
O316       O   -0.1392920798    0.0244683738    0.0499403605          -0.344
C251       C    0.3765474737   -0.0000000000    0.0000000000         -0.3506
C252       C    0.3667928682   -0.0055997652    0.0306407393          -0.353
C253       C    0.3350874785   -0.0058371622    0.0379152312         -0.3531
C254       C    0.3128947488   -0.0003797212    0.0153297294         -0.3507
C255       C    0.3226588695    0.0057830187   -0.0146717554         -0.3477
C256       C    0.3537138195    0.0059257854   -0.0225410458         -0.3477
C257       C    0.2774557657   -0.0013333130    0.0244213148         -0.3514
H258       H    0.3257853518   -0.0105292075    0.0622569285          0.6447
C259       C    0.3796565352   -0.0109850861    0.0537106383          0.6445
C260       C    0.3518058648   -0.0108890548   -0.0778499830          0.6315
H261       H    0.3053846380    0.0107889914   -0.0336397221         -0.3452
C262       C    0.2533584121   -0.0003300158   -0.0039390131         -0.3536
N263       N    0.2205684584    0.0005107284    0.0095442553         -0.3522
N264       N    0.2310042511    0.0173423483    0.0274997180         -0.3348
N265       N    0.2606504577    0.0125244850    0.0395829230         -0.3375
C266       C    0.1883390699   -0.0001852810    0.0061081738         -0.3538
H267       H    0.2561843692   -0.0220119975   -0.0186568097          0.6251
H268       H    0.2575495143    0.0206485903   -0.0197531089         -0.3357
H269       H    0.2728967780   -0.0227754263    0.0391675725          0.6302
C270       C    0.1692945114   -0.0072431747    0.0311412158          0.6418
C271       C    0.1373961251   -0.0070105339    0.0282633916          0.6411
C272       C    0.1234525263   -0.0000000000    0.0000000000          0.6446
C273       C    0.1424326773    0.0061984753   -0.0253892165         -0.3517
C274       C    0.1744538369    0.0061358360   -0.0222986931         -0.3509
H275       H    0.1231696014   -0.0126133891    0.0495022107          0.6377
H276       H    0.1798374883   -0.0128961661    0.0544609062           0.639
H277       H    0.1893298198    0.0116903500   -0.0431997041         -0.3475
H278       H    0.1321298941    0.0118374793   -0.0488534059          -0.349
N279       N    0.3933436297   -0.0137975464    0.0775111338          0.6444
H280       H    0.3504387591   -0.0347583348   -0.0667503240          0.6106
H281       H    0.3702635951   -0.0111010233   -0.0966591414          0.6299
H282       H    0.3285763252   -0.0044425885   -0.0884432667           0.636
O283       O    0.3607079202    0.0130543657   -0.0540585281          -0.344
C218       C    0.0000000000    0.0000000000   -0.3765474737         -0.3506
C219       C   -0.0010958117   -0.0311289491   -0.3667928682          -0.353
C220       C   -0.0002754649   -0.0383609350   -0.3350874785         -0.3531
C221       C    0.0018480152   -0.0152226683   -0.3128947488         -0.3507
C222       C    0.0035935767    0.0153554524   -0.3226588695         -0.3477
C223       C    0.0025933195    0.0231622186   -0.3537138195         -0.3477
C224       C    0.0022233286   -0.0243564190   -0.2774557657         -0.3514
H225       H   -0.0013868925   -0.0631257941   -0.3257853518          0.6447
C226       C   -0.0030776681   -0.0547360278   -0.3796565352          0.6445
C227       C   -0.0220667459    0.0754470019   -0.3518058648          0.6315
H228       H    0.0057951208    0.0348489571   -0.3053846380         -0.3452
C229       C   -0.0008979157    0.0038494782   -0.2533584121         -0.3536
N230       N    0.0018898095   -0.0093692194   -0.2205684584         -0.3522
N231       N    0.0211480078   -0.0246931833   -0.2310042511         -0.3348
N232       N    0.0181338846   -0.0373474597   -0.2606504577         -0.3375
C233       C    0.0007027262   -0.0060704442   -0.1883390699         -0.3538
H234       H   -0.0244855198    0.0152664307   -0.2561843692          0.6251
H235       H    0.0175648169    0.0225394498   -0.2575495143         -0.3357
H236       H   -0.0168529086   -0.0420570832   -0.2728967780          0.6302
C237       C   -0.0026492400   -0.0318625239   -0.1692945114          0.6418
C238       C   -0.0028365150   -0.0289813918   -0.1373961251          0.6411
C239       C    0.0000000000    0.0000000000   -0.1234525263          0.6446
C240       C    0.0024499715    0.0260198203   -0.1424326773         -0.3517
C241       C    0.0028363039    0.0229528991   -0.1744538369         -0.3509
H242       H   -0.0052992201   -0.0508083135   -0.1231696014          0.6377
H243       H   -0.0048597012   -0.0557555801   -0.1798374883           0.639
H244       H    0.0053001813    0.0444385733   -0.1893298198         -0.3475
H245       H    0.0046256324    0.0500538182   -0.1321298941          -0.349
N246       N   -0.0024078974   -0.0786927582   -0.3933436297          0.6444
H247       H   -0.0440734506    0.0610022830   -0.3504387591          0.6106
H248       H   -0.0250049159    0.0940264671   -0.3702635951          0.6299
H249       H   -0.0172251185    0.0868633600   -0.3285763252           0.636
O250       O    0.0050745962    0.0553804062   -0.3607079202          -0.344
C185       C    0.0000000000    0.0000000000    0.3765474737         -0.3506
C186       C    0.0060516651    0.0305546989    0.3667928682          -0.353
C187       C    0.0085040557    0.0374074625    0.3350874785         -0.3531
C188       C    0.0052801050    0.0143967108    0.3128947488         -0.3507
C189       C   -0.0000130657   -0.0157703374    0.3226588695         -0.3477
C190       C   -0.0027720380   -0.0231415099    0.3537138195         -0.3477
C191       C    0.0077341424    0.0232026158    0.2774557657         -0.3514
H192       H    0.0130852046    0.0617702742    0.3257853518          0.6447
C193       C    0.0095206927    0.0539894544    0.3796565352          0.6445
C194       C   -0.0387349461   -0.0684017201    0.3518058648          0.6315
H195       H   -0.0023275516   -0.0352507552    0.3053846380         -0.3452
C196       C   -0.0017544062   -0.0035421454    0.2533584121         -0.3536
N197       N    0.0039822492    0.0086888057    0.2205684584         -0.3522
N198       N    0.0262343768    0.0192028385    0.2310042511         -0.3348
N199       N    0.0261938481    0.0322110670    0.2606504577         -0.3375
C200       C    0.0020722701    0.0057488967    0.1883390699         -0.3538
H201       H   -0.0273277822   -0.0092626617    0.2561843692          0.6251
H202       H    0.0119451661   -0.0259588636    0.2575495143         -0.3357
H203       H   -0.0067889090    0.0447965344    0.2728967780          0.6302
C204       C    0.0047071494    0.0316240675    0.1692945114          0.6418
C205       C    0.0038659912    0.0288621032    0.1373961251          0.6411
C206       C   -0.0000000000   -0.0000000000    0.1234525263          0.6446
C207       C   -0.0035650523   -0.0258906124    0.1424326773         -0.3517
C208       C   -0.0024876257   -0.0229933015    0.1744538369         -0.3509
H209       H    0.0064598324    0.0506738297    0.1231696014          0.6377
H210       H    0.0080190259    0.0553894992    0.1798374883           0.639
H211       H   -0.0050022906   -0.0444730908    0.1893298198         -0.3475
H212       H   -0.0069430370   -0.0497852933    0.1321298941          -0.349
N213       N    0.0156510432    0.0771582335    0.3933436297          0.6444
H214       H   -0.0568553715   -0.0493073455    0.3504387591          0.6106
H215       H   -0.0458439383   -0.0858169894    0.3702635951          0.6299
H216       H   -0.0366322552   -0.0806227381    0.3285763252           0.636
O217       O   -0.0077240318   -0.0550734079    0.3607079202          -0.344
loop_
_geom_bond_atom_site_label_1
_geom_bond_atom_site_label_2
_geom_bond_distance
_geom_bond_site_symmetry_2
_ccdc_geom_bond_type
Zn1          O5 1.942       .   S
Zn1          O6 1.922       .   S
Zn1         O10 1.922       .   S
Zn1         O17 1.922       .   S
Zn2          O5 1.942       .   S
Zn2          O7 1.922       .   S
Zn2          O9 1.922       .   S
Zn2         O13 1.922       .   S
Zn3          O5 1.942       .   S
Zn3          O8 1.922       .   S
Zn3         O11 1.922       .   S
Zn3         O14 1.922       .   S
Zn4          O5 1.942       .   S
Zn4         O12 1.922       .   S
Zn4         O15 1.922       .   S
Zn4         O16 1.922       .   S
O6          C18 1.304       .   A
O7          C19 1.304       .   A
O8          C20 1.304       .   A
O9          C18 1.304       .   A
O10         C20 1.304       .   A
O11         C19 1.304       .   A
O12         C21 1.304       .   A
O13         C22 1.304       .   A
O14         C21 1.304       .   A
O15         C22 1.304       .   A
O16         C23 1.304       .   A
O17         C23 1.304       .   A
C18        C206 1.540       .   S
C19        C272 1.540       .   S
C20        C350 1.540       .   S
C21        C239 1.540       .   S
C22        C317 1.540       .   S
C23        C284 1.540       .   S
Zn24        O28 1.942       .   S
Zn24        O29 1.922       .   S
Zn24        O33 1.922       .   S
Zn24        O40 1.922       .   S
Zn25        O28 1.942       .   S
Zn25        O30 1.922       .   S
Zn25        O32 1.922       .   S
Zn25        O36 1.922       .   S
Zn26        O28 1.942       .   S
Zn26        O31 1.922       .   S
Zn26        O34 1.922       .   S
Zn26        O37 1.922       .   S
Zn27        O28 1.942       .   S
Zn27        O35 1.922       .   S
Zn27        O38 1.922       .   S
Zn27        O39 1.922       .   S
O29         C41 1.304       .   A
O30         C42 1.304       .   A
O31         C43 1.304       .   A
O32         C41 1.304       .   A
O33         C43 1.304       .   A
O34         C42 1.304       .   A
O35         C44 1.304       .   A
O36         C45 1.304       .   A
O37         C44 1.304       .   A
O38         C45 1.304       .   A
O39         C46 1.304       .   A
O40         C46 1.304       .   A
C41        C185 1.540   1_655   S
C42        C383 1.540       .   S
C43        C449 1.540       .   S
C44        C218 1.540   1_656   S
C45        C482 1.540       .   S
C46        C416 1.540       .   S
Zn47        O51 1.942       .   S
Zn47        O52 1.922       .   S
Zn47        O56 1.922       .   S
Zn47        O63 1.922       .   S
Zn48        O51 1.942       .   S
Zn48        O53 1.922       .   S
Zn48        O55 1.922       .   S
Zn48        O59 1.922       .   S
Zn49        O51 1.942       .   S
Zn49        O54 1.922       .   S
Zn49        O57 1.922       .   S
Zn49        O60 1.922       .   S
Zn50        O51 1.942       .   S
Zn50        O58 1.922       .   S
Zn50        O61 1.922       .   S
Zn50        O62 1.922       .   S
O52         C64 1.304       .   A
O53         C65 1.304       .   A
O54         C66 1.304       .   A
O55         C64 1.304       .   A
O56         C66 1.304       .   A
O57         C65 1.304       .   A
O58         C67 1.304       .   A
O59         C68 1.304       .   A
O60         C67 1.304       .   A
O61         C68 1.304       .   A
O62         C69 1.304       .   A
O63         C69 1.304       .   A
C64        C338 1.540   1_655   S
C65        C515 1.540       .   S
C66        C581 1.540       .   S
C67        C371 1.540   1_665   S
C68        C635 1.540       .   S
C69        C548 1.540       .   S
Zn70        O74 1.942       .   S
Zn70        O75 1.922       .   S
Zn70        O79 1.922       .   S
Zn70        O86 1.922       .   S
Zn71        O74 1.942       .   S
Zn71        O76 1.922       .   S
Zn71        O78 1.922       .   S
Zn71        O82 1.922       .   S
Zn72        O74 1.942       .   S
Zn72        O77 1.922       .   S
Zn72        O80 1.922       .   S
Zn72        O83 1.922       .   S
Zn73        O74 1.942       .   S
Zn73        O81 1.922       .   S
Zn73        O84 1.922       .   S
Zn73        O85 1.922       .   S
O75         C87 1.304       .   A
O76         C88 1.304       .   A
O77         C89 1.304       .   A
O78         C87 1.304       .   A
O79         C89 1.304       .   A
O80         C88 1.304       .   A
O81         C90 1.304       .   A
O82         C91 1.304       .   A
O83         C90 1.304       .   A
O84         C91 1.304       .   A
O85         C92 1.304       .   A
O86         C92 1.304       .   A
C87        C470 1.540       .   S
C88        C536 1.540       .   S
C89        C680 1.540       .   S
C90        C503 1.540   1_565   S
C91        C647 1.540       .   S
C92        C569 1.540   1_556   S
Zn93        O97 1.942       .   S
Zn93        O98 1.922       .   S
Zn93       O102 1.922       .   S
Zn93       O109 1.922       .   S
Zn94        O97 1.942       .   S
Zn94        O99 1.922       .   S
Zn94       O101 1.922       .   S
Zn94       O105 1.922       .   S
Zn95        O97 1.942       .   S
Zn95       O100 1.922       .   S
Zn95       O103 1.922       .   S
Zn95       O106 1.922       .   S
Zn96        O97 1.942       .   S
Zn96       O104 1.922       .   S
Zn96       O107 1.922       .   S
Zn96       O108 1.922       .   S
O98        C110 1.304       .   A
O99        C111 1.304       .   A
O100       C112 1.304       .   A
O101       C110 1.304       .   A
O102       C112 1.304       .   A
O103       C111 1.304       .   A
O104       C113 1.304       .   A
O105       C114 1.304       .   A
O106       C113 1.304       .   A
O107       C114 1.304       .   A
O108       C115 1.304       .   A
O109       C115 1.304       .   A
C110       C251 1.540   1_565   S
C111       C734 1.540       .   S
C112       C812 1.540       .   S
C113       C305 1.540   1_665   S
C114       C800 1.540       .   S
C115       C746 1.540       .   S
Zn116      O120 1.942       .   S
Zn116      O121 1.922       .   S
Zn116      O125 1.922       .   S
Zn116      O132 1.922       .   S
Zn117      O120 1.942       .   S
Zn117      O122 1.922       .   S
Zn117      O124 1.922       .   S
Zn117      O128 1.922       .   S
Zn118      O120 1.942       .   S
Zn118      O123 1.922       .   S
Zn118      O126 1.922       .   S
Zn118      O129 1.922       .   S
Zn119      O120 1.942       .   S
Zn119      O127 1.922       .   S
Zn119      O130 1.922       .   S
Zn119      O131 1.922       .   S
O121       C133 1.304       .   A
O122       C134 1.304       .   A
O123       C135 1.304       .   A
O124       C133 1.304       .   A
O125       C135 1.304       .   A
O126       C134 1.304       .   A
O127       C136 1.304       .   A
O128       C137 1.304       .   A
O129       C136 1.304       .   A
O130       C137 1.304       .   A
O131       C138 1.304       .   A
O132       C138 1.304       .   A
C133       C845 1.540       .   S
C134       C767 1.540   1_556   S
C135       C404 1.540   1_465   S
C136       C878 1.540       .   S
C137       C437 1.540   1_565   S
C138       C713 1.540       .   S
Zn139      O143 1.942       .   S
Zn139      O144 1.922       .   S
Zn139      O148 1.922       .   S
Zn139      O155 1.922       .   S
Zn140      O143 1.942       .   S
Zn140      O145 1.922       .   S
Zn140      O147 1.922       .   S
Zn140      O151 1.922       .   S
Zn141      O143 1.942       .   S
Zn141      O146 1.922       .   S
Zn141      O149 1.922       .   S
Zn141      O152 1.922       .   S
Zn142      O143 1.942       .   S
Zn142      O150 1.922       .   S
Zn142      O153 1.922       .   S
Zn142      O154 1.922       .   S
O144       C156 1.304       .   A
O145       C157 1.304       .   A
O146       C158 1.304       .   A
O147       C156 1.304       .   A
O148       C158 1.304       .   A
O149       C157 1.304       .   A
O150       C159 1.304       .   A
O151       C160 1.304       .   A
O152       C159 1.304       .   A
O153       C160 1.304       .   A
O154       C161 1.304       .   A
O155       C161 1.304       .   A
C156       C602 1.540   1_455   S
C157       C779 1.540   1_545   S
C158       C944 1.540       .   S
C159       C614 1.540       .   S
C160       C911 1.540       .   S
C161       C833 1.540       .   S
Zn162      O166 1.942       .   S
Zn162      O167 1.922       .   S
Zn162      O171 1.922       .   S
Zn162      O178 1.922       .   S
Zn163      O166 1.942       .   S
Zn163      O168 1.922       .   S
Zn163      O170 1.922       .   S
Zn163      O174 1.922       .   S
Zn164      O166 1.942       .   S
Zn164      O169 1.922       .   S
Zn164      O172 1.922       .   S
Zn164      O175 1.922       .   S
Zn165      O166 1.942       .   S
Zn165      O173 1.922       .   S
Zn165      O176 1.922       .   S
Zn165      O177 1.922       .   S
O167       C179 1.304       .   A
O168       C180 1.304       .   A
O169       C181 1.304       .   A
O170       C179 1.304       .   A
O171       C181 1.304       .   A
O172       C180 1.304       .   A
O173       C182 1.304       .   A
O174       C183 1.304       .   A
O175       C182 1.304       .   A
O176       C183 1.304       .   A
O177       C184 1.304       .   A
O178       C184 1.304       .   A
C179       C899 1.540       .   S
C180       C965 1.540   1_556   S
C181       C668 1.540   1_455   S
C182       C866 1.540   1_545   S
C183       C701 1.540       .   S
C184       C932 1.540       .   S
C944       C945 0.030       .   A
C944       C949 0.030       .   A
C945       C946 0.030       .   A
C945       C952 0.025       .   A
C946       C947 0.030       .   A
C946       H951 0.025       .   A
C947       C948 0.030       .   A
C947       C950 0.034       .   A
C948       C949 0.030       .   A
C948       H954 0.024       .   A
C949       O976 0.031       .   A
C950       C955 0.034       .   A
C950       N958 0.025       .   A
C950       H962 0.024       .   A
C952       N972 0.026       .   A
C953       H973 0.024       .   A
C953       H974 0.024       .   A
C953       H975 0.024       .   A
C953       O976 0.032       .   A
C955       N956 0.033       .   A
C955       H960 0.024       .   A
C955       H961 0.025       .   A
N956       N957 0.025       .   A
N956       C959 0.030       .   A
N957       N958 0.030       .   A
C959       C963 0.030       .   A
C959       C967 0.030       .   A
C963       C964 0.030       .   A
C963       H969 0.024       .   A
C964       C965 0.030       .   A
C964       H968 0.024       .   A
C965       C966 0.030       .   A
C966       C967 0.030       .   A
C966       H971 0.024       .   A
C967       H970 0.024       .   A
C911       C912 0.030       .   A
C911       C916 0.030       .   A
C912       C913 0.030       .   A
C912       C919 0.025       .   A
C913       C914 0.030       .   A
C913       H918 0.025       .   A
C914       C915 0.030       .   A
C914       C917 0.034       .   A
C915       C916 0.030       .   A
C915       H921 0.024       .   A
C916       O943 0.031       .   A
C917       C922 0.034       .   A
C917       N925 0.025       .   A
C917       H929 0.024       .   A
C919       N939 0.026       .   A
C920       H940 0.024       .   A
C920       H941 0.024       .   A
C920       H942 0.024       .   A
C920       O943 0.032       .   A
C922       N923 0.033       .   A
C922       H927 0.024       .   A
C922       H928 0.025       .   A
N923       N924 0.025       .   A
N923       C926 0.030       .   A
N924       N925 0.030       .   A
C926       C930 0.030       .   A
C926       C934 0.030       .   A
C930       C931 0.030       .   A
C930       H936 0.024       .   A
C931       C932 0.030       .   A
C931       H935 0.024       .   A
C932       C933 0.030       .   A
C933       C934 0.030       .   A
C933       H938 0.024       .   A
C934       H937 0.024       .   A
C878       C879 0.030       .   A
C878       C883 0.030       .   A
C879       C880 0.030       .   A
C879       C886 0.025       .   A
C880       C881 0.030       .   A
C880       H885 0.025       .   A
C881       C882 0.030       .   A
C881       C884 0.034       .   A
C882       C883 0.030       .   A
C882       H888 0.024       .   A
C883       O910 0.031       .   A
C884       C889 0.034       .   A
C884       N892 0.025       .   A
C884       H896 0.024       .   A
C886       N906 0.026       .   A
C887       H907 0.024       .   A
C887       H908 0.024       .   A
C887       H909 0.024       .   A
C887       O910 0.032       .   A
C889       N890 0.033       .   A
C889       H894 0.024       .   A
C889       H895 0.025       .   A
N890       N891 0.025       .   A
N890       C893 0.030       .   A
N891       N892 0.030       .   A
C893       C897 0.030       .   A
C893       C901 0.030       .   A
C897       C898 0.030       .   A
C897       H903 0.024       .   A
C898       C899 0.030       .   A
C898       H902 0.024       .   A
C899       C900 0.030       .   A
C900       C901 0.030       .   A
C900       H905 0.024       .   A
C901       H904 0.024       .   A
C845       C846 0.030       .   A
C845       C850 0.030       .   A
C846       C847 0.030       .   A
C846       C853 0.025       .   A
C847       C848 0.030       .   A
C847       H852 0.025       .   A
C848       C849 0.030       .   A
C848       C851 0.034       .   A
C849       C850 0.030       .   A
C849       H855 0.024       .   A
C850       O877 0.031       .   A
C851       C856 0.034       .   A
C851       N859 0.025       .   A
C851       H863 0.024       .   A
C853       N873 0.026       .   A
C854       H874 0.024       .   A
C854       H875 0.024       .   A
C854       H876 0.024       .   A
C854       O877 0.032       .   A
C856       N857 0.033       .   A
C856       H861 0.024       .   A
C856       H862 0.025       .   A
N857       N858 0.025       .   A
N857       C860 0.030       .   A
N858       N859 0.030       .   A
C860       C864 0.030       .   A
C860       C868 0.030       .   A
C864       C865 0.030       .   A
C864       H870 0.024       .   A
C865       C866 0.030       .   A
C865       H869 0.024       .   A
C866       C867 0.030       .   A
C867       C868 0.030       .   A
C867       H872 0.024       .   A
C868       H871 0.024       .   A
C812       C813 0.030       .   A
C812       C817 0.030       .   A
C813       C814 0.030       .   A
C813       C820 0.025       .   A
C814       C815 0.030       .   A
C814       H819 0.025       .   A
C815       C816 0.030       .   A
C815       C818 0.034       .   A
C816       C817 0.030       .   A
C816       H822 0.024       .   A
C817       O844 0.031       .   A
C818       C823 0.034       .   A
C818       N826 0.025       .   A
C818       H830 0.024       .   A
C820       N840 0.026       .   A
C821       H841 0.024       .   A
C821       H842 0.024       .   A
C821       H843 0.024       .   A
C821       O844 0.032       .   A
C823       N824 0.033       .   A
C823       H828 0.024       .   A
C823       H829 0.025       .   A
N824       N825 0.025       .   A
N824       C827 0.030       .   A
N825       N826 0.030       .   A
C827       C831 0.030       .   A
C827       C835 0.030       .   A
C831       C832 0.030       .   A
C831       H837 0.024       .   A
C832       C833 0.030       .   A
C832       H836 0.024       .   A
C833       C834 0.030       .   A
C834       C835 0.030       .   A
C834       H839 0.024       .   A
C835       H838 0.024       .   A
C779       C780 0.030       .   A
C779       C784 0.030       .   A
C780       C781 0.030       .   A
C780       C787 0.025       .   A
C781       C782 0.030       .   A
C781       H786 0.025       .   A
C782       C783 0.030       .   A
C782       C785 0.034       .   A
C783       C784 0.030       .   A
C783       H789 0.024       .   A
C784       O811 0.031       .   A
C785       C790 0.034       .   A
C785       N793 0.025       .   A
C785       H797 0.024       .   A
C787       N807 0.026       .   A
C788       H808 0.024       .   A
C788       H809 0.024       .   A
C788       H810 0.024       .   A
C788       O811 0.032       .   A
C790       N791 0.033       .   A
C790       H795 0.024       .   A
C790       H796 0.025       .   A
N791       N792 0.025       .   A
N791       C794 0.030       .   A
N792       N793 0.030       .   A
C794       C798 0.030       .   A
C794       C802 0.030       .   A
C798       C799 0.030       .   A
C798       H804 0.024       .   A
C799       C800 0.030       .   A
C799       H803 0.024       .   A
C800       C801 0.030       .   A
C801       C802 0.030       .   A
C801       H806 0.024       .   A
C802       H805 0.024       .   A
C746       C747 0.030       .   A
C746       C751 0.030       .   A
C747       C748 0.030       .   A
C747       C754 0.025       .   A
C748       C749 0.030       .   A
C748       H753 0.025       .   A
C749       C750 0.030       .   A
C749       C752 0.034       .   A
C750       C751 0.030       .   A
C750       H756 0.024       .   A
C751       O778 0.031       .   A
C752       C757 0.034       .   A
C752       N760 0.025       .   A
C752       H764 0.024       .   A
C754       N774 0.026       .   A
C755       H775 0.024       .   A
C755       H776 0.024       .   A
C755       H777 0.024       .   A
C755       O778 0.032       .   A
C757       N758 0.033       .   A
C757       H762 0.024       .   A
C757       H763 0.025       .   A
N758       N759 0.025       .   A
N758       C761 0.030       .   A
N759       N760 0.030       .   A
C761       C765 0.030       .   A
C761       C769 0.030       .   A
C765       C766 0.030       .   A
C765       H771 0.024       .   A
C766       C767 0.030       .   A
C766       H770 0.024       .   A
C767       C768 0.030       .   A
C768       C769 0.030       .   A
C768       H773 0.024       .   A
C769       H772 0.024       .   A
C713       C714 0.030       .   A
C713       C718 0.030       .   A
C714       C715 0.030       .   A
C714       C721 0.025       .   A
C715       C716 0.030       .   A
C715       H720 0.025       .   A
C716       C717 0.030       .   A
C716       C719 0.034       .   A
C717       C718 0.030       .   A
C717       H723 0.024       .   A
C718       O745 0.031       .   A
C719       C724 0.034       .   A
C719       N727 0.025       .   A
C719       H731 0.024       .   A
C721       N741 0.026       .   A
C722       H742 0.024       .   A
C722       H743 0.024       .   A
C722       H744 0.024       .   A
C722       O745 0.032       .   A
C724       N725 0.033       .   A
C724       H729 0.024       .   A
C724       H730 0.025       .   A
N725       N726 0.025       .   A
N725       C728 0.030       .   A
N726       N727 0.030       .   A
C728       C732 0.030       .   A
C728       C736 0.030       .   A
C732       C733 0.030       .   A
C732       H738 0.024       .   A
C733       C734 0.030       .   A
C733       H737 0.024       .   A
C734       C735 0.030       .   A
C735       C736 0.030       .   A
C735       H740 0.024       .   A
C736       H739 0.024       .   A
C680       C681 0.030       .   A
C680       C685 0.030       .   A
C681       C682 0.030       .   A
C681       C688 0.025       .   A
C682       C683 0.030       .   A
C682       H687 0.025       .   A
C683       C684 0.030       .   A
C683       C686 0.034       .   A
C684       C685 0.030       .   A
C684       H690 0.024       .   A
C685       O712 0.031       .   A
C686       C691 0.034       .   A
C686       N694 0.025       .   A
C686       H698 0.024       .   A
C688       N708 0.026       .   A
C689       H709 0.024       .   A
C689       H710 0.024       .   A
C689       H711 0.024       .   A
C689       O712 0.032       .   A
C691       N692 0.033       .   A
C691       H696 0.024       .   A
C691       H697 0.025       .   A
N692       N693 0.025       .   A
N692       C695 0.030       .   A
N693       N694 0.030       .   A
C695       C699 0.030       .   A
C695       C703 0.030       .   A
C699       C700 0.030       .   A
C699       H705 0.024       .   A
C700       C701 0.030       .   A
C700       H704 0.024       .   A
C701       C702 0.030       .   A
C702       C703 0.030       .   A
C702       H707 0.024       .   A
C703       H706 0.024       .   A
C647       C648 0.030       .   A
C647       C652 0.030       .   A
C648       C649 0.030       .   A
C648       C655 0.025       .   A
C649       C650 0.030       .   A
C649       H654 0.025       .   A
C650       C651 0.030       .   A
C650       C653 0.034       .   A
C651       C652 0.030       .   A
C651       H657 0.024       .   A
C652       O679 0.031       .   A
C653       C658 0.034       .   A
C653       N661 0.025       .   A
C653       H665 0.024       .   A
C655       N675 0.026       .   A
C656       H676 0.024       .   A
C656       H677 0.024       .   A
C656       H678 0.024       .   A
C656       O679 0.032       .   A
C658       N659 0.033       .   A
C658       H663 0.024       .   A
C658       H664 0.025       .   A
N659       N660 0.025       .   A
N659       C662 0.030       .   A
N660       N661 0.030       .   A
C662       C666 0.030       .   A
C662       C670 0.030       .   A
C666       C667 0.030       .   A
C666       H672 0.024       .   A
C667       C668 0.030       .   A
C667       H671 0.024       .   A
C668       C669 0.030       .   A
C669       C670 0.030       .   A
C669       H674 0.024       .   A
C670       H673 0.024       .   A
C614       C615 0.030       .   A
C614       C619 0.030       .   A
C615       C616 0.030       .   A
C615       C622 0.025       .   A
C616       C617 0.030       .   A
C616       H621 0.025       .   A
C617       C618 0.030       .   A
C617       C620 0.034       .   A
C618       C619 0.030       .   A
C618       H624 0.024       .   A
C619       O646 0.031       .   A
C620       C625 0.034       .   A
C620       N628 0.025       .   A
C620       H632 0.024       .   A
C622       N642 0.026       .   A
C623       H643 0.024       .   A
C623       H644 0.024       .   A
C623       H645 0.024       .   A
C623       O646 0.032       .   A
C625       N626 0.033       .   A
C625       H630 0.024       .   A
C625       H631 0.025       .   A
N626       N627 0.025       .   A
N626       C629 0.030       .   A
N627       N628 0.030       .   A
C629       C633 0.030       .   A
C629       C637 0.030       .   A
C633       C634 0.030       .   A
C633       H639 0.024       .   A
C634       C635 0.030       .   A
C634       H638 0.024       .   A
C635       C636 0.030       .   A
C636       C637 0.030       .   A
C636       H641 0.024       .   A
C637       H640 0.024       .   A
C581       C582 0.030       .   A
C581       C586 0.030       .   A
C582       C583 0.030       .   A
C582       C589 0.025       .   A
C583       C584 0.030       .   A
C583       H588 0.025       .   A
C584       C585 0.030       .   A
C584       C587 0.034       .   A
C585       C586 0.030       .   A
C585       H591 0.024       .   A
C586       O613 0.031       .   A
C587       C592 0.034       .   A
C587       N595 0.025       .   A
C587       H599 0.024       .   A
C589       N609 0.026       .   A
C590       H610 0.024       .   A
C590       H611 0.024       .   A
C590       H612 0.024       .   A
C590       O613 0.032       .   A
C592       N593 0.033       .   A
C592       H597 0.024       .   A
C592       H598 0.025       .   A
N593       N594 0.025       .   A
N593       C596 0.030       .   A
N594       N595 0.030       .   A
C596       C600 0.030       .   A
C596       C604 0.030       .   A
C600       C601 0.030       .   A
C600       H606 0.024       .   A
C601       C602 0.030       .   A
C601       H605 0.024       .   A
C602       C603 0.030       .   A
C603       C604 0.030       .   A
C603       H608 0.024       .   A
C604       H607 0.024       .   A
C548       C549 0.030       .   A
C548       C553 0.030       .   A
C549       C550 0.030       .   A
C549       C556 0.025       .   A
C550       C551 0.030       .   A
C550       H555 0.025       .   A
C551       C552 0.030       .   A
C551       C554 0.034       .   A
C552       C553 0.030       .   A
C552       H558 0.024       .   A
C553       O580 0.031       .   A
C554       C559 0.034       .   A
C554       N562 0.025       .   A
C554       H566 0.024       .   A
C556       N576 0.026       .   A
C557       H577 0.024       .   A
C557       H578 0.024       .   A
C557       H579 0.024       .   A
C557       O580 0.032       .   A
C559       N560 0.033       .   A
C559       H564 0.024       .   A
C559       H565 0.025       .   A
N560       N561 0.025       .   A
N560       C563 0.030       .   A
N561       N562 0.030       .   A
C563       C567 0.030       .   A
C563       C571 0.030       .   A
C567       C568 0.030       .   A
C567       H573 0.024       .   A
C568       C569 0.030       .   A
C568       H572 0.024       .   A
C569       C570 0.030       .   A
C570       C571 0.030       .   A
C570       H575 0.024       .   A
C571       H574 0.024       .   A
C515       C516 0.030       .   A
C515       C520 0.030       .   A
C516       C517 0.030       .   A
C516       C523 0.025       .   A
C517       C518 0.030       .   A
C517       H522 0.025       .   A
C518       C519 0.030       .   A
C518       C521 0.034       .   A
C519       C520 0.030       .   A
C519       H525 0.024       .   A
C520       O547 0.031       .   A
C521       C526 0.034       .   A
C521       N529 0.025       .   A
C521       H533 0.024       .   A
C523       N543 0.026       .   A
C524       H544 0.024       .   A
C524       H545 0.024       .   A
C524       H546 0.024       .   A
C524       O547 0.032       .   A
C526       N527 0.033       .   A
C526       H531 0.024       .   A
C526       H532 0.025       .   A
N527       N528 0.025       .   A
N527       C530 0.030       .   A
N528       N529 0.030       .   A
C530       C534 0.030       .   A
C530       C538 0.030       .   A
C534       C535 0.030       .   A
C534       H540 0.024       .   A
C535       C536 0.030       .   A
C535       H539 0.024       .   A
C536       C537 0.030       .   A
C537       C538 0.030       .   A
C537       H542 0.024       .   A
C538       H541 0.024       .   A
C482       C483 0.030       .   A
C482       C487 0.030       .   A
C483       C484 0.030       .   A
C483       C490 0.025       .   A
C484       C485 0.030       .   A
C484       H489 0.025       .   A
C485       C486 0.030       .   A
C485       C488 0.034       .   A
C486       C487 0.030       .   A
C486       H492 0.024       .   A
C487       O514 0.031       .   A
C488       C493 0.034       .   A
C488       N496 0.025       .   A
C488       H500 0.024       .   A
C490       N510 0.026       .   A
C491       H511 0.024       .   A
C491       H512 0.024       .   A
C491       H513 0.024       .   A
C491       O514 0.032       .   A
C493       N494 0.033       .   A
C493       H498 0.024       .   A
C493       H499 0.025       .   A
N494       N495 0.025       .   A
N494       C497 0.030       .   A
N495       N496 0.030       .   A
C497       C501 0.030       .   A
C497       C505 0.030       .   A
C501       C502 0.030       .   A
C501       H507 0.024       .   A
C502       C503 0.030       .   A
C502       H506 0.024       .   A
C503       C504 0.030       .   A
C504       C505 0.030       .   A
C504       H509 0.024       .   A
C505       H508 0.024       .   A
C449       C450 0.030       .   A
C449       C454 0.030       .   A
C450       C451 0.030       .   A
C450       C457 0.025       .   A
C451       C452 0.030       .   A
C451       H456 0.025       .   A
C452       C453 0.030       .   A
C452       C455 0.034       .   A
C453       C454 0.030       .   A
C453       H459 0.024       .   A
C454       O481 0.031       .   A
C455       C460 0.034       .   A
C455       N463 0.025       .   A
C455       H467 0.024       .   A
C457       N477 0.026       .   A
C458       H478 0.024       .   A
C458       H479 0.024       .   A
C458       H480 0.024       .   A
C458       O481 0.032       .   A
C460       N461 0.033       .   A
C460       H465 0.024       .   A
C460       H466 0.025       .   A
N461       N462 0.025       .   A
N461       C464 0.030       .   A
N462       N463 0.030       .   A
C464       C468 0.030       .   A
C464       C472 0.030       .   A
C468       C469 0.030       .   A
C468       H474 0.024       .   A
C469       C470 0.030       .   A
C469       H473 0.024       .   A
C470       C471 0.030       .   A
C471       C472 0.030       .   A
C471       H476 0.024       .   A
C472       H475 0.024       .   A
C416       C417 0.030       .   A
C416       C421 0.030       .   A
C417       C418 0.030       .   A
C417       C424 0.025       .   A
C418       C419 0.030       .   A
C418       H423 0.025       .   A
C419       C420 0.030       .   A
C419       C422 0.034       .   A
C420       C421 0.030       .   A
C420       H426 0.024       .   A
C421       O448 0.031       .   A
C422       C427 0.034       .   A
C422       N430 0.025       .   A
C422       H434 0.024       .   A
C424       N444 0.026       .   A
C425       H445 0.024       .   A
C425       H446 0.024       .   A
C425       H447 0.024       .   A
C425       O448 0.032       .   A
C427       N428 0.033       .   A
C427       H432 0.024       .   A
C427       H433 0.025       .   A
N428       N429 0.025       .   A
N428       C431 0.030       .   A
N429       N430 0.030       .   A
C431       C435 0.030       .   A
C431       C439 0.030       .   A
C435       C436 0.030       .   A
C435       H441 0.024       .   A
C436       C437 0.030       .   A
C436       H440 0.024       .   A
C437       C438 0.030       .   A
C438       C439 0.030       .   A
C438       H443 0.024       .   A
C439       H442 0.024       .   A
C383       C384 0.030       .   A
C383       C388 0.030       .   A
C384       C385 0.030       .   A
C384       C391 0.025       .   A
C385       C386 0.030       .   A
C385       H390 0.025       .   A
C386       C387 0.030       .   A
C386       C389 0.034       .   A
C387       C388 0.030       .   A
C387       H393 0.024       .   A
C388       O415 0.031       .   A
C389       C394 0.034       .   A
C389       N397 0.025       .   A
C389       H401 0.024       .   A
C391       N411 0.026       .   A
C392       H412 0.024       .   A
C392       H413 0.024       .   A
C392       H414 0.024       .   A
C392       O415 0.032       .   A
C394       N395 0.033       .   A
C394       H399 0.024       .   A
C394       H400 0.025       .   A
N395       N396 0.025       .   A
N395       C398 0.030       .   A
N396       N397 0.030       .   A
C398       C402 0.030       .   A
C398       C406 0.030       .   A
C402       C403 0.030       .   A
C402       H408 0.024       .   A
C403       C404 0.030       .   A
C403       H407 0.024       .   A
C404       C405 0.030       .   A
C405       C406 0.030       .   A
C405       H410 0.024       .   A
C406       H409 0.024       .   A
C350       C351 0.030       .   A
C350       C355 0.030       .   A
C351       C352 0.030       .   A
C351       C358 0.025       .   A
C352       C353 0.030       .   A
C352       H357 0.025       .   A
C353       C354 0.030       .   A
C353       C356 0.034       .   A
C354       C355 0.030       .   A
C354       H360 0.024       .   A
C355       O382 0.031       .   A
C356       C361 0.034       .   A
C356       N364 0.025       .   A
C356       H368 0.024       .   A
C358       N378 0.026       .   A
C359       H379 0.024       .   A
C359       H380 0.024       .   A
C359       H381 0.024       .   A
C359       O382 0.032       .   A
C361       N362 0.033       .   A
C361       H366 0.024       .   A
C361       H367 0.025       .   A
N362       N363 0.025       .   A
N362       C365 0.030       .   A
N363       N364 0.030       .   A
C365       C369 0.030       .   A
C365       C373 0.030       .   A
C369       C370 0.030       .   A
C369       H375 0.024       .   A
C370       C371 0.030       .   A
C370       H374 0.024       .   A
C371       C372 0.030       .   A
C372       C373 0.030       .   A
C372       H377 0.024       .   A
C373       H376 0.024       .   A
C317       C318 0.030       .   A
C317       C322 0.030       .   A
C318       C319 0.030       .   A
C318       C325 0.025       .   A
C319       C320 0.030       .   A
C319       H324 0.025       .   A
C320       C321 0.030       .   A
C320       C323 0.034       .   A
C321       C322 0.030       .   A
C321       H327 0.024       .   A
C322       O349 0.031       .   A
C323       C328 0.034       .   A
C323       N331 0.025       .   A
C323       H335 0.024       .   A
C325       N345 0.026       .   A
C326       H346 0.024       .   A
C326       H347 0.024       .   A
C326       H348 0.024       .   A
C326       O349 0.032       .   A
C328       N329 0.033       .   A
C328       H333 0.024       .   A
C328       H334 0.025       .   A
N329       N330 0.025       .   A
N329       C332 0.030       .   A
N330       N331 0.030       .   A
C332       C336 0.030       .   A
C332       C340 0.030       .   A
C336       C337 0.030       .   A
C336       H342 0.024       .   A
C337       C338 0.030       .   A
C337       H341 0.024       .   A
C338       C339 0.030       .   A
C339       C340 0.030       .   A
C339       H344 0.024       .   A
C340       H343 0.024       .   A
C284       C285 0.030       .   A
C284       C289 0.030       .   A
C285       C286 0.030       .   A
C285       C292 0.025       .   A
C286       C287 0.030       .   A
C286       H291 0.025       .   A
C287       C288 0.030       .   A
C287       C290 0.034       .   A
C288       C289 0.030       .   A
C288       H294 0.024       .   A
C289       O316 0.031       .   A
C290       C295 0.034       .   A
C290       N298 0.025       .   A
C290       H302 0.024       .   A
C292       N312 0.026       .   A
C293       H313 0.024       .   A
C293       H314 0.024       .   A
C293       H315 0.024       .   A
C293       O316 0.032       .   A
C295       N296 0.033       .   A
C295       H300 0.024       .   A
C295       H301 0.025       .   A
N296       N297 0.025       .   A
N296       C299 0.030       .   A
N297       N298 0.030       .   A
C299       C303 0.030       .   A
C299       C307 0.030       .   A
C303       C304 0.030       .   A
C303       H309 0.024       .   A
C304       C305 0.030       .   A
C304       H308 0.024       .   A
C305       C306 0.030       .   A
C306       C307 0.030       .   A
C306       H311 0.024       .   A
C307       H310 0.024       .   A
C251       C252 0.030       .   A
C251       C256 0.030       .   A
C252       C253 0.030       .   A
C252       C259 0.025       .   A
C253       C254 0.030       .   A
C253       H258 0.025       .   A
C254       C255 0.030       .   A
C254       C257 0.034       .   A
C255       C256 0.030       .   A
C255       H261 0.024       .   A
C256       O283 0.031       .   A
C257       C262 0.034       .   A
C257       N265 0.025       .   A
C257       H269 0.024       .   A
C259       N279 0.026       .   A
C260       H280 0.024       .   A
C260       H281 0.024       .   A
C260       H282 0.024       .   A
C260       O283 0.032       .   A
C262       N263 0.033       .   A
C262       H267 0.024       .   A
C262       H268 0.025       .   A
N263       N264 0.025       .   A
N263       C266 0.030       .   A
N264       N265 0.030       .   A
C266       C270 0.030       .   A
C266       C274 0.030       .   A
C270       C271 0.030       .   A
C270       H276 0.024       .   A
C271       C272 0.030       .   A
C271       H275 0.024       .   A
C272       C273 0.030       .   A
C273       C274 0.030       .   A
C273       H278 0.024       .   A
C274       H277 0.024       .   A
C218       C219 0.030       .   A
C218       C223 0.030       .   A
C219       C220 0.030       .   A
C219       C226 0.025       .   A
C220       C221 0.030       .   A
C220       H225 0.025       .   A
C221       C222 0.030       .   A
C221       C224 0.034       .   A
C222       C223 0.030       .   A
C222       H228 0.024       .   A
C223       O250 0.031       .   A
C224       C229 0.034       .   A
C224       N232 0.025       .   A
C224       H236 0.024       .   A
C226       N246 0.026       .   A
C227       H247 0.024       .   A
C227       H248 0.024       .   A
C227       H249 0.024       .   A
C227       O250 0.032       .   A
C229       N230 0.033       .   A
C229       H234 0.024       .   A
C229       H235 0.025       .   A
N230       N231 0.025       .   A
N230       C233 0.030       .   A
N231       N232 0.030       .   A
C233       C237 0.030       .   A
C233       C241 0.030       .   A
C237       C238 0.030       .   A
C237       H243 0.024       .   A
C238       C239 0.030       .   A
C238       H242 0.024       .   A
C239       C240 0.030       .   A
C240       C241 0.030       .   A
C240       H245 0.024       .   A
C241       H244 0.024       .   A
C185       C186 0.030       .   A
C185       C190 0.030       .   A
C186       C187 0.030       .   A
C186       C193 0.025       .   A
C187       C188 0.030       .   A
C187       H192 0.025       .   A
C188       C189 0.030       .   A
C188       C191 0.034       .   A
C189       C190 0.030       .   A
C189       H195 0.024       .   A
C190       O217 0.031       .   A
C191       C196 0.034       .   A
C191       N199 0.025       .   A
C191       H203 0.024       .   A
C193       N213 0.026       .   A
C194       H214 0.024       .   A
C194       H215 0.024       .   A
C194       H216 0.024       .   A
C194       O217 0.032       .   A
C196       N197 0.033       .   A
C196       H201 0.024       .   A
C196       H202 0.025       .   A
N197       N198 0.025       .   A
N197       C200 0.030       .   A
N198       N199 0.030       .   A
C200       C204 0.030       .   A
C200       C208 0.030       .   A
C204       C205 0.030       .   A
C204       H210 0.024       .   A
C205       C206 0.030       .   A
C205       H209 0.024       .   A
C206       C207 0.030       .   A
C207       C208 0.030       .   A
C207       H212 0.024       .   A
C208       H211 0.024       .   A
