data_pcu_v1-6c_Zn_1_Ch_1-88_fer_tobacco
_audit_creation_date              2021-04-07
_audit_creation_method            'tobacco_3.0'
_symmetry_space_group_name_H-M    'P1'
_symmetry_Int_Tables_number       1
_symmetry_cell_setting            triclinic
loop_
_symmetry_equiv_pos_as_xyz
  x,y,z
_cell_length_a                    31.36458343396008
_cell_length_b                    31.36458343396008
_cell_length_c                    31.36458343396008
_cell_angle_alpha                 90.0
_cell_angle_beta                  90.0
_cell_angle_gamma                 90.0
loop_
_atom_site_label
_atom_site_type_symbol
_atom_site_fract_x
_atom_site_fract_y
_atom_site_fract_z
_atom_site_charge
Zn1       Zn   -0.0357473264   -0.0357473264   -0.0357473264          1.4972
Zn2       Zn    0.0357473264    0.0357473264   -0.0357473264          1.4936
Zn3       Zn   -0.0357473264    0.0357473264    0.0357473264          1.4911
Zn4       Zn    0.0357473264   -0.0357473264    0.0357473264          1.4948
O5         O    0.0000000000    0.0000000000    0.0000000000         -2.0935
O6         O   -0.0262716705   -0.0262716705   -0.0955408831         -0.9998
O7         O    0.0262716705    0.0955408831   -0.0262716705          -0.998
O8         O   -0.0955408831    0.0262716705    0.0262716705         -0.9932
O9         O    0.0262716705    0.0262716705   -0.0955408831            -1.0
O10        O   -0.0955408831   -0.0262716705   -0.0262716705          -0.996
O11        O   -0.0262716705    0.0955408831    0.0262716705         -1.0018
O12        O    0.0262716705   -0.0262716705    0.0955408831         -0.9957
O13        O    0.0955408831    0.0262716705   -0.0262716705         -1.0033
O14        O   -0.0262716705    0.0262716705    0.0955408831         -0.9972
O15        O    0.0955408831   -0.0262716705    0.0262716705         -1.0019
O16        O    0.0262716705   -0.0955408831    0.0262716705          -1.001
O17        O   -0.0262716705   -0.0955408831   -0.0262716705         -0.9988
C18        C   -0.0000000000   -0.0000000000   -0.1142307535           0.519
C19        C    0.0000000000    0.1142307535    0.0000000000          0.5239
C20        C   -0.1142307535   -0.0000000000    0.0000000000          0.5135
C21        C    0.0000000000    0.0000000000    0.1142307535          0.5173
C22        C    0.1142307535    0.0000000000   -0.0000000000          0.5287
C23        C   -0.0000000000   -0.1142307535    0.0000000000          0.5192
Zn24      Zn    0.9642526736    0.0357473264    0.4642526736          1.4972
Zn25      Zn    1.0357473264   -0.0357473264    0.4642526736          1.4936
Zn26      Zn    1.0357473264    0.0357473264    0.5357473264          1.4911
Zn27      Zn    0.9642526736   -0.0357473264    0.5357473264          1.4948
O28        O    1.0000000000    0.0000000000    0.5000000000         -2.0935
O29        O    0.9737283295    0.0262716705    0.4044591169         -0.9998
O30        O    1.0955408831   -0.0262716705    0.4737283295          -0.998
O31        O    1.0262716705    0.0955408831    0.5262716705         -0.9932
O32        O    1.0262716705   -0.0262716705    0.4044591169            -1.0
O33        O    0.9737283295    0.0955408831    0.4737283295          -0.996
O34        O    1.0955408831    0.0262716705    0.5262716705         -1.0018
O35        O    0.9737283295   -0.0262716705    0.5955408831         -0.9957
O36        O    1.0262716705   -0.0955408831    0.4737283295         -1.0033
O37        O    1.0262716705    0.0262716705    0.5955408831         -0.9972
O38        O    0.9737283295   -0.0955408831    0.5262716705         -1.0019
O39        O    0.9044591169   -0.0262716705    0.5262716705          -1.001
O40        O    0.9044591169    0.0262716705    0.4737283295         -0.9988
C41        C    1.0000000000    0.0000000000    0.3857692465           0.519
C42        C    1.1142307535    0.0000000000    0.5000000000          0.5239
C43        C    1.0000000000    0.1142307535    0.5000000000          0.5135
C44        C    1.0000000000    0.0000000000    0.6142307535          0.5173
C45        C    1.0000000000   -0.1142307535    0.5000000000          0.5287
C46        C    0.8857692465    0.0000000000    0.5000000000          0.5192
Zn47      Zn    1.0357473264    0.4642526736   -0.0357473264          1.4972
Zn48      Zn    0.9642526736    0.4642526736    0.0357473264          1.4936
Zn49      Zn    1.0357473264    0.5357473264    0.0357473264          1.4911
Zn50      Zn    0.9642526736    0.5357473264   -0.0357473264          1.4948
O51        O    1.0000000000    0.5000000000    0.0000000000         -2.0935
O52        O    1.0262716705    0.4044591169   -0.0262716705         -0.9998
O53        O    0.9737283295    0.4737283295    0.0955408831          -0.998
O54        O    1.0955408831    0.5262716705    0.0262716705         -0.9932
O55        O    0.9737283295    0.4044591169    0.0262716705            -1.0
O56        O    1.0955408831    0.4737283295   -0.0262716705          -0.996
O57        O    1.0262716705    0.5262716705    0.0955408831         -1.0018
O58        O    0.9737283295    0.5955408831   -0.0262716705         -0.9957
O59        O    0.9044591169    0.4737283295    0.0262716705         -1.0033
O60        O    1.0262716705    0.5955408831    0.0262716705         -0.9972
O61        O    0.9044591169    0.5262716705   -0.0262716705         -1.0019
O62        O    0.9737283295    0.5262716705   -0.0955408831          -1.001
O63        O    1.0262716705    0.4737283295   -0.0955408831         -0.9988
C64        C    1.0000000000    0.3857692465    0.0000000000           0.519
C65        C    1.0000000000    0.5000000000    0.1142307535          0.5239
C66        C    1.1142307535    0.5000000000    0.0000000000          0.5135
C67        C    1.0000000000    0.6142307535    0.0000000000          0.5173
C68        C    0.8857692465    0.5000000000    0.0000000000          0.5287
C69        C    1.0000000000    0.5000000000   -0.1142307535          0.5192
Zn70      Zn    0.9642526736    0.4642526736    0.5357473264          1.4972
Zn71      Zn    1.0357473264    0.4642526736    0.4642526736          1.4936
Zn72      Zn    0.9642526736    0.5357473264    0.4642526736          1.4911
Zn73      Zn    1.0357473264    0.5357473264    0.5357473264          1.4948
O74        O    1.0000000000    0.5000000000    0.5000000000         -2.0935
O75        O    0.9737283295    0.4044591169    0.5262716705         -0.9998
O76        O    1.0262716705    0.4737283295    0.4044591169          -0.998
O77        O    0.9044591169    0.5262716705    0.4737283295         -0.9932
O78        O    1.0262716705    0.4044591169    0.4737283295            -1.0
O79        O    0.9044591169    0.4737283295    0.5262716705          -0.996
O80        O    0.9737283295    0.5262716705    0.4044591169         -1.0018
O81        O    1.0262716705    0.5955408831    0.5262716705         -0.9957
O82        O    1.0955408831    0.4737283295    0.4737283295         -1.0033
O83        O    0.9737283295    0.5955408831    0.4737283295         -0.9972
O84        O    1.0955408831    0.5262716705    0.5262716705         -1.0019
O85        O    1.0262716705    0.5262716705    0.5955408831          -1.001
O86        O    0.9737283295    0.4737283295    0.5955408831         -0.9988
C87        C    1.0000000000    0.3857692465    0.5000000000           0.519
C88        C    1.0000000000    0.5000000000    0.3857692465          0.5239
C89        C    0.8857692465    0.5000000000    0.5000000000          0.5135
C90        C    1.0000000000    0.6142307535    0.5000000000          0.5173
C91        C    1.1142307535    0.5000000000    0.5000000000          0.5287
C92        C    1.0000000000    0.5000000000    0.6142307535          0.5192
Zn93      Zn    0.4642526736    0.9642526736   -0.0357473264          1.4972
Zn94      Zn    0.4642526736    1.0357473264    0.0357473264          1.4936
Zn95      Zn    0.5357473264    0.9642526736    0.0357473264          1.4911
Zn96      Zn    0.5357473264    1.0357473264   -0.0357473264          1.4948
O97        O    0.5000000000    1.0000000000    0.0000000000         -2.0935
O98        O    0.4044591169    0.9737283295   -0.0262716705         -0.9998
O99        O    0.4737283295    1.0262716705    0.0955408831          -0.998
O100       O    0.5262716705    0.9044591169    0.0262716705         -0.9932
O101       O    0.4044591169    1.0262716705    0.0262716705            -1.0
O102       O    0.4737283295    0.9044591169   -0.0262716705          -0.996
O103       O    0.5262716705    0.9737283295    0.0955408831         -1.0018
O104       O    0.5955408831    1.0262716705   -0.0262716705         -0.9957
O105       O    0.4737283295    1.0955408831    0.0262716705         -1.0033
O106       O    0.5955408831    0.9737283295    0.0262716705         -0.9972
O107       O    0.5262716705    1.0955408831   -0.0262716705         -1.0019
O108       O    0.5262716705    1.0262716705   -0.0955408831          -1.001
O109       O    0.4737283295    0.9737283295   -0.0955408831         -0.9988
C110       C    0.3857692465    1.0000000000    0.0000000000           0.519
C111       C    0.5000000000    1.0000000000    0.1142307535          0.5239
C112       C    0.5000000000    0.8857692465    0.0000000000          0.5135
C113       C    0.6142307535    1.0000000000    0.0000000000          0.5173
C114       C    0.5000000000    1.1142307535    0.0000000000          0.5287
C115       C    0.5000000000    1.0000000000   -0.1142307535          0.5192
Zn116     Zn    0.4642526736    1.0357473264    0.5357473264          1.4972
Zn117     Zn    0.4642526736    0.9642526736    0.4642526736          1.4936
Zn118     Zn    0.5357473264    1.0357473264    0.4642526736          1.4911
Zn119     Zn    0.5357473264    0.9642526736    0.5357473264          1.4948
O120       O    0.5000000000    1.0000000000    0.5000000000         -2.0935
O121       O    0.4044591169    1.0262716705    0.5262716705         -0.9998
O122       O    0.4737283295    0.9737283295    0.4044591169          -0.998
O123       O    0.5262716705    1.0955408831    0.4737283295         -0.9932
O124       O    0.4044591169    0.9737283295    0.4737283295            -1.0
O125       O    0.4737283295    1.0955408831    0.5262716705          -0.996
O126       O    0.5262716705    1.0262716705    0.4044591169         -1.0018
O127       O    0.5955408831    0.9737283295    0.5262716705         -0.9957
O128       O    0.4737283295    0.9044591169    0.4737283295         -1.0033
O129       O    0.5955408831    1.0262716705    0.4737283295         -0.9972
O130       O    0.5262716705    0.9044591169    0.5262716705         -1.0019
O131       O    0.5262716705    0.9737283295    0.5955408831          -1.001
O132       O    0.4737283295    1.0262716705    0.5955408831         -0.9988
C133       C    0.3857692465    1.0000000000    0.5000000000           0.519
C134       C    0.5000000000    1.0000000000    0.3857692465          0.5239
C135       C    0.5000000000    1.1142307535    0.5000000000          0.5135
C136       C    0.6142307535    1.0000000000    0.5000000000          0.5173
C137       C    0.5000000000    0.8857692465    0.5000000000          0.5287
C138       C    0.5000000000    1.0000000000    0.6142307535          0.5192
Zn139     Zn    0.4642526736    0.5357473264   -0.0357473264          1.4972
Zn140     Zn    0.4642526736    0.4642526736    0.0357473264          1.4936
Zn141     Zn    0.5357473264    0.4642526736   -0.0357473264          1.4911
Zn142     Zn    0.5357473264    0.5357473264    0.0357473264          1.4948
O143       O    0.5000000000    0.5000000000    0.0000000000         -2.0935
O144       O    0.4044591169    0.5262716705   -0.0262716705         -0.9998
O145       O    0.4737283295    0.4044591169    0.0262716705          -0.998
O146       O    0.5262716705    0.4737283295   -0.0955408831         -0.9932
O147       O    0.4044591169    0.4737283295    0.0262716705            -1.0
O148       O    0.4737283295    0.5262716705   -0.0955408831          -0.996
O149       O    0.5262716705    0.4044591169   -0.0262716705         -1.0018
O150       O    0.5955408831    0.5262716705    0.0262716705         -0.9957
O151       O    0.4737283295    0.4737283295    0.0955408831         -1.0033
O152       O    0.5955408831    0.4737283295   -0.0262716705         -0.9972
O153       O    0.5262716705    0.5262716705    0.0955408831         -1.0019
O154       O    0.5262716705    0.5955408831    0.0262716705          -1.001
O155       O    0.4737283295    0.5955408831   -0.0262716705         -0.9988
C156       C    0.3857692465    0.5000000000    0.0000000000           0.519
C157       C    0.5000000000    0.3857692465    0.0000000000          0.5239
C158       C    0.5000000000    0.5000000000   -0.1142307535          0.5135
C159       C    0.6142307535    0.5000000000    0.0000000000          0.5173
C160       C    0.5000000000    0.5000000000    0.1142307535          0.5287
C161       C    0.5000000000    0.6142307535    0.0000000000          0.5192
Zn162     Zn    0.4642526736    0.5357473264    0.4642526736          1.4972
Zn163     Zn    0.4642526736    0.4642526736    0.5357473264          1.4936
Zn164     Zn    0.5357473264    0.4642526736    0.4642526736          1.4911
Zn165     Zn    0.5357473264    0.5357473264    0.5357473264          1.4948
O166       O    0.5000000000    0.5000000000    0.5000000000         -2.0935
O167       O    0.4044591169    0.5262716705    0.4737283295         -0.9998
O168       O    0.4737283295    0.4044591169    0.5262716705          -0.998
O169       O    0.5262716705    0.4737283295    0.4044591169         -0.9932
O170       O    0.4044591169    0.4737283295    0.5262716705            -1.0
O171       O    0.4737283295    0.5262716705    0.4044591169          -0.996
O172       O    0.5262716705    0.4044591169    0.4737283295         -1.0018
O173       O    0.5955408831    0.5262716705    0.5262716705         -0.9957
O174       O    0.4737283295    0.4737283295    0.5955408831         -1.0033
O175       O    0.5955408831    0.4737283295    0.4737283295         -0.9972
O176       O    0.5262716705    0.5262716705    0.5955408831         -1.0019
O177       O    0.5262716705    0.5955408831    0.5262716705          -1.001
O178       O    0.4737283295    0.5955408831    0.4737283295         -0.9988
C179       C    0.3857692465    0.5000000000    0.5000000000           0.519
C180       C    0.5000000000    0.3857692465    0.5000000000          0.5239
C181       C    0.5000000000    0.5000000000    0.3857692465          0.5135
C182       C    0.6142307535    0.5000000000    0.5000000000          0.5173
C183       C    0.5000000000    0.5000000000    0.6142307535          0.5287
C184       C    0.5000000000    0.6142307535    0.5000000000          0.5192
C576       C    0.5000000000    0.5000000000   -0.1633307202         -0.2341
C577       C    0.5310830375    0.4858997155   -0.1901543788         -0.2301
C578       C    0.5271868241    0.4828948591   -0.2329005021         -0.2319
C579       C    0.4934252426    0.4980867586   -0.2540558326          -0.242
C580       C    0.4646550672    0.5184912127   -0.2287186398         -0.2519
C581       C    0.4720847487    0.5224960202   -0.1860254851         -0.2515
C582       C    0.4940186038    0.4978904675   -0.2971806750          -0.247
H583       H    0.5549120144    0.4732819492   -0.2516207376         -0.2303
O584       O    0.5700961258    0.4985514424   -0.1814677482         -0.2462
O585       O    0.4902268297    0.5586407213   -0.1757618460          0.7158
C586       C    0.4272854459    0.5436903358   -0.2467313354          0.7304
H587       H    0.5669515653    0.5271469393   -0.1958523955          0.7281
H588       H    0.5165291396    0.5408319776   -0.1647668655          0.7281
C589       C    0.5000000000    0.5000000000   -0.3366692798         -0.2544
H590       H    0.4306073547    0.5510711468   -0.2805185960          0.7195
H591       H    0.4233099677    0.5738904673   -0.2297648536          0.7071
H592       H    0.3978785336    0.5255118769   -0.2425218553         -0.2489
C559       C    0.5000000000    0.5000000000    0.1633307202         -0.2341
C560       C    0.4845090701    0.4695861161    0.1901543788         -0.2301
C561       C    0.4894286978    0.4696692101    0.2329005021         -0.2319
C562       C    0.5063315779    0.5026074984    0.2540558326          -0.242
C563       C    0.5160814326    0.5365044757    0.2287186398         -0.2519
C564       C    0.5077766758    0.5349979356    0.1860254851         -0.2515
C565       C    0.5059903887    0.5020838595    0.2971806750          -0.247
H566       H    0.4737616353    0.4448571693    0.2516207376         -0.2303
O567       O    0.4461283945    0.4551289036    0.1814677482         -0.2462
O568       O    0.4710459775    0.5519221883    0.1757618460          0.7158
C569       C    0.5295593697    0.5795141213    0.2467313354          0.7304
H570       H    0.4307424124    0.4794365622    0.1958523955          0.7281
H571       H    0.4616049044    0.5215935055    0.1647668655          0.7281
C572       C    0.5000000000    0.5000000000    0.3366692798         -0.2544
H573       H    0.5223579797    0.5832089058    0.2805185960          0.7195
H574       H    0.5138214220    0.6055941783    0.2297648536          0.7071
H575       H    0.5638820685    0.5836584191    0.2425218553         -0.2489
C542       C    0.5000000000    0.8366692798    0.5000000000         -0.2341
C543       C    0.5134406799    0.8098456212    0.5313738963         -0.2301
C544       C    0.5085373822    0.7670994979    0.5309648568         -0.2319
C545       C    0.4938552039    0.7459441674    0.4969785090          -0.242
C546       C    0.4863738694    0.7712813602    0.4625097641         -0.2519
C547       C    0.4945604880    0.8139745149    0.4645635232         -0.2515
C548       C    0.4941609299    0.7028193250    0.4975236138          -0.247
H549       H    0.5225251604    0.7483792624    0.5567609083         -0.2303
O550       O    0.5507785431    0.8185322518    0.5483436110         -0.2462
O551       O    0.5323323204    0.8242381540    0.4501114230          0.7158
C552       C    0.4757767435    0.7532686646    0.4187012567          0.7304
H553       H    0.5677420663    0.8041476045    0.5251093780          0.7281
H554       H    0.5397420993    0.8352331345    0.4809992529          0.7281
C555       C    0.5000000000    0.6633307202    0.5000000000         -0.2544
H556       H    0.4832072246    0.7194814040    0.4154919888          0.7195
H557       H    0.4932089526    0.7702351464    0.3937218561          0.7071
H558       H    0.4418042746    0.7574781447    0.4122907799         -0.2489
C525       C    0.5000000000    1.1633307202    0.5000000000         -0.2341
C526       C    0.5177324154    1.1901543788    0.5291639278         -0.2301
C527       C    0.5202474247    1.2329005021    0.5249349362         -0.2319
C528       C    0.5011095054    1.2540558326    0.4932430092          -0.242
C529       C    0.4773964431    1.2287186398    0.4671325627         -0.2519
C530       C    0.4743132294    1.1860254851    0.4749895623         -0.2515
C531       C    0.5013756601    1.2971806750    0.4938084907          -0.247
H532       H    0.5331215613    1.2516207376    0.5513044417         -0.2303
O533       O    0.5098592803    1.1814677482    0.5694144060         -0.2462
O534       O    0.4406098723    1.1757618460    0.4973425989          0.7158
C535       C    0.4478903177    1.2467313354    0.4330609768          0.7304
H536       H    0.4810931136    1.1958523955    0.5697280292          0.7281
H537       H    0.4614495398    1.1647668655    0.5213148978          0.7281
C538       C    0.5000000000    1.3366692798    0.5000000000         -0.2544
H539       H    0.4409620522    1.2805185960    0.4372455421          0.7195
H540       H    0.4174313136    1.2297648536    0.4327424782          0.7071
H541       H    0.4624042234    1.2425218553    0.4016831279         -0.2489
C508       C    0.5000000000    0.8366692798    0.0000000000         -0.2341
C509       C    0.4788603676    0.8098456212    0.0267971861         -0.2301
C510       C    0.4768770020    0.7670994979    0.0222943090         -0.2319
C511       C    0.4997184560    0.7459441674   -0.0068416855          -0.242
C512       C    0.5264241063    0.7712813602   -0.0298823665         -0.2519
C513       C    0.5285313251    0.8139745149   -0.0217093451         -0.2515
C514       C    0.4993856625    0.7028193250   -0.0063126712          -0.247
H515       H    0.4608987842    0.7483792624    0.0469071262         -0.2303
O516       O    0.4817921126    0.8185322518    0.0677055242         -0.2462
O517       O    0.5592738302    0.8242381540    0.0045675061          0.7158
C518       C    0.5598458826    0.7532686646   -0.0601225595          0.7304
H519       H    0.5103077434    0.8041476045    0.0715067748          0.7281
H520       H    0.5356797522    0.8352331345    0.0258344369          0.7281
C521       C    0.5000000000    0.6633307202    0.0000000000         -0.2544
H522       H    0.5662152948    0.7194814040   -0.0551283592          0.7195
H523       H    0.5901185360    0.7702351464   -0.0567433844          0.7071
H524       H    0.5492459829    0.7574781447   -0.0930294734         -0.2489
C491       C    0.5000000000    1.1633307202    0.0000000000         -0.2341
C492       C    0.4916577882    1.1901543788    0.0330965368         -0.2301
C493       C    0.4964358431    1.2329005021    0.0319218739         -0.2319
C494       C    0.5055934921    1.2540558326   -0.0039497814          -0.242
C495       C    0.5075639818    1.2287186398   -0.0391659980         -0.2519
C496       C    0.4998019381    1.1860254851   -0.0358509826         -0.2515
C497       C    0.5053772467    1.2971806750   -0.0033633979          -0.247
H498       H    0.4866765993    1.2516207376    0.0595958938         -0.2303
O499       O    0.4574513703    1.1814677482    0.0557241355         -0.2462
O500       O    0.4602280167    1.1757618460   -0.0441864051          0.7158
C501       C    0.5111434947    1.2467313354   -0.0840956262          0.7304
H502       H    0.4370467161    1.1958523955    0.0354450626          0.7281
H503       H    0.4577653394    1.1647668655   -0.0125178390          0.7281
C504       C    0.5000000000    1.3366692798    0.0000000000         -0.2544
H505       H    0.5033009389    1.2805185960   -0.0860970677          0.7195
H506       H    0.4900016725    1.2297648536   -0.1060245050          0.7071
H507       H    0.5436860681    1.2425218553   -0.0957662634         -0.2489
C474       C    0.5000000000    1.0000000000   -0.3366692798         -0.2341
C475       C    0.4689169625    0.9858997155   -0.3098456212         -0.2301
C476       C    0.4728131759    0.9828948591   -0.2670994979         -0.2319
C477       C    0.5065747574    0.9980867586   -0.2459441674          -0.242
C478       C    0.5353449328    1.0184912127   -0.2712813602         -0.2519
C479       C    0.5279152513    1.0224960202   -0.3139745149         -0.2515
C480       C    0.5059813962    0.9978904675   -0.2028193250          -0.247
H481       H    0.4450879856    0.9732819492   -0.2483792624         -0.2303
O482       O    0.4299038742    0.9985514424   -0.3185322518         -0.2462
O483       O    0.5097731703    1.0586407213   -0.3242381540          0.7158
C484       C    0.5727145541    1.0436903358   -0.2532686646          0.7304
H485       H    0.4330484347    1.0271469393   -0.3041476045          0.7281
H486       H    0.4834708604    1.0408319776   -0.3352331345          0.7281
C487       C    0.5000000000    1.0000000000   -0.1633307202         -0.2544
H488       H    0.5693926453    1.0510711468   -0.2194814040          0.7195
H489       H    0.5766900323    1.0738904673   -0.2702351464          0.7071
H490       H    0.6021214664    1.0255118769   -0.2574781447         -0.2489
C457       C    0.5000000000    1.0000000000    0.1633307202         -0.2341
C458       C    0.5072301099    0.9666428605    0.1901543788         -0.2301
C459       C    0.5109888643    0.9698179837    0.2329005021         -0.2319
C460       C    0.5032563934    1.0060236060    0.2540558326          -0.242
C461       C    0.4893761936    1.0384489786    0.2287186398         -0.2519
C462       C    0.4838950030    1.0320306299    0.1860254851         -0.2515
C463       C    0.5033231741    1.0054021979    0.2971806750          -0.247
H464       H    0.5145403987    0.9406892896    0.2516207376         -0.2303
O465       O    0.4866376276    0.9311740443    0.1814677482         -0.2462
O466       O    0.4447378401    1.0219167229    0.1757618460          0.7158
C467       C    0.4726221175    1.0802913655    0.2467313354          0.7304
H468       H    0.4593478473    0.9402767140    0.1958523955          0.7281
H469       H    0.4566009744    0.9924509986    0.1647668655          0.7281
C470       C    0.5000000000    1.0000000000    0.3366692798         -0.2544
H471       H    0.4647068487    1.0786002209    0.2805185960          0.7195
H472       H    0.4439389528    1.0905445813    0.2297648536          0.7071
H473       H    0.4965918354    1.1052047250    0.2425218553         -0.2489
C440       C    0.8366692798    0.5000000000    0.5000000000         -0.2341
C441       C    0.8098456212    0.5258671383    0.4777319870         -0.2301
C442       C    0.7670994979    0.5212834417    0.4759433095         -0.2319
C443       C    0.7459441674    0.4931525341    0.5000117584          -0.242
C444       C    0.7712813602    0.4712768580    0.5276797820         -0.2519
C445       C    0.8139745149    0.4795326355    0.5294349991         -0.2515
C446       C    0.7028193250    0.4936668087    0.4996566114          -0.247
H447       H    0.7483792624    0.5451892901    0.4589255357         -0.2303
O448       O    0.8185322518    0.5668635070    0.4789088500         -0.2462
O449       O    0.8242381540    0.5071021391    0.5590237975          0.7158
C450       C    0.7532686646    0.4424959430    0.5623661386          0.7304
H451       H    0.8041476045    0.5718826545    0.5072354959          0.7281
H452       H    0.8352331345    0.5273389682    0.5345404642          0.7281
C453       C    0.6633307202    0.5000000000    0.5000000000         -0.2544
H454       H    0.7194814040    0.4477583756    0.5685157933          0.7195
H455       H    0.7702351464    0.4471686593    0.5924662730          0.7071
H456       H    0.7574781447    0.4091652120    0.5531854401         -0.2489
C423       C    1.1633307202    0.5000000000    0.5000000000         -0.2341
C424       C    1.1901543788    0.5331711290    0.4919595120         -0.2301
C425       C    1.2329005021    0.5319530057    0.4967266723         -0.2319
C426       C    1.2540558326    0.4959994478    0.5055572933          -0.242
C427       C    1.2287186398    0.4607667480    0.5072070216         -0.2519
C428       C    1.1860254851    0.4641523074    0.4994754863         -0.2515
C429       C    1.2971806750    0.4965877762    0.5053463966          -0.247
H430       H    1.2516207376    0.5597147462    0.4872198335         -0.2303
O431       O    1.1814677482    0.5561092741    0.4579605598         -0.2462
O432       O    1.1757618460    0.4561775916    0.4598273031          0.7158
C433       C    1.2467313354    0.4158063875    0.5103772557          0.7304
H434       H    1.1958523955    0.5360168474    0.4373720899          0.7281
H435       H    1.1647668655    0.4878672700    0.4576531027          0.7281
C436       C    1.3366692798    0.5000000000    0.5000000000         -0.2544
H437       H    1.2805185960    0.4138764436    0.5025167998          0.7195
H438       H    1.2297648536    0.3940709359    0.4890366250          0.7071
H439       H    1.2425218553    0.4038399006    0.5428122067         -0.2489
C406       C    0.8366692798    0.5000000000    0.0000000000         -0.2341
C407       C    0.8098456212    0.5175243904   -0.0292894006         -0.2301
C408       C    0.7670994979    0.5126105097   -0.0295412304         -0.2319
C409       C    0.7459441674    0.4935056808    0.0021706555          -0.242
C410       C    0.7712813602    0.4814720718    0.0353257002         -0.2519
C411       C    0.8139745149    0.4898600881    0.0343877066         -0.2515
C412       C    0.7028193250    0.4938817077    0.0016714446          -0.247
H413       H    0.7483792624    0.5299294753   -0.0532297855         -0.2303
O414       O    0.8185322518    0.5567997905   -0.0411016905         -0.2462
O415       O    0.8242381540    0.5253541412    0.0537718939          0.7158
C416       C    0.7532686646    0.4650989944    0.0773186370          0.7304
H417       H    0.8041476045    0.5704962252   -0.0158035012          0.7281
H418       H    0.8352331345    0.5368368977    0.0241558651          0.7281
C419       C    0.6633307202    0.5000000000    0.0000000000         -0.2544
H420       H    0.7194814040    0.4720323029    0.0814948414          0.7195
H421       H    0.7702351464    0.4790259850    0.1044090652          0.7071
H422       H    0.7574781447    0.4305738573    0.0791180160         -0.2489
C389       C    1.3366692798    0.5000000000    0.0000000000         -0.2341
C390       C    1.3098456212    0.4787062403   -0.0266748766         -0.2301
C391       C    1.2670994979    0.4767488655   -0.0221606407         -0.2319
C392       C    1.2459441674    0.4997579012    0.0068431948          -0.242
C393       C    1.2712813602    0.5265959310    0.0297295421         -0.2519
C394       C    1.3139745149    0.5286559996    0.0215445090         -0.2515
C395       C    1.2028193250    0.4994220635    0.0063161078          -0.247
H396       H    1.2483792624    0.4606290270   -0.0466809388         -0.2303
O397       O    1.3185322518    0.4814021110   -0.0675994356         -0.2462
O398       O    1.3242381540    0.5592465148   -0.0049091278          0.7158
C399       C    1.2532686646    0.5601914785    0.0597765651          0.7304
H400       H    1.3041476045    0.5098953548   -0.0715650080          0.7281
H401       H    1.3352331345    0.5355302308   -0.0260396918          0.7281
C402       C    1.1633307202    0.5000000000    0.0000000000         -0.2544
H403       H    1.2194814040    0.5665319947    0.0547457298          0.7195
H404       H    1.2702351464    0.5904441489    0.0562229325          0.7071
H405       H    1.2574781447    0.5497814544    0.0927440378         -0.2489
C372       C    1.0000000000    0.5000000000   -0.3366692798         -0.2341
C373       C    1.0094995448    0.5327831038   -0.3098456212         -0.2301
C374       C    1.0046831794    0.5317769898   -0.2670994979         -0.2319
C375       C    0.9942712275    0.4962491211   -0.2459441674          -0.242
C376       C    0.9910650217    0.4611238456   -0.2712813602         -0.2519
C377       C    0.9989387123    0.4641641821   -0.3139745149         -0.2515
C378       C    0.9945079355    0.4968275474   -0.2028193250          -0.247
H379       H    1.0154084216    0.5590911508   -0.2483792624         -0.2303
O380       O    1.0444796263    0.5541952766   -0.3185322518         -0.2462
O381       O    1.0381954424    0.4544439111   -0.3242381540          0.7158
C382       C    0.9859096124    0.4163476671   -0.2532686646          0.7304
H383       H    1.0641594093    0.5332120250   -0.3041476045          0.7281
H384       H    1.0417689246    0.4860064377   -0.3352331345          0.7281
C385       C    1.0000000000    0.5000000000   -0.1633307202         -0.2544
H386       H    0.9936770305    0.4140719992   -0.2194814040          0.7195
H387       H    1.0062681609    0.3936897354   -0.2702351464          0.7071
H388       H    0.9529772002    0.4058272542   -0.2574781447         -0.2489
C355       C    1.0000000000    0.5000000000    0.1633307202         -0.2341
C356       C    1.0333571395    0.5072301099    0.1901543788         -0.2301
C357       C    1.0301820163    0.5109888643    0.2329005021         -0.2319
C358       C    0.9939763940    0.5032563934    0.2540558326 -0.24359999999999998
C359       C    0.9615510214    0.4893761936    0.2287186398         -0.2519
C360       C    0.9679693701    0.4838950030    0.1860254851         -0.2515
C361       C    0.9945978021    0.5033231741    0.2971806750          -0.247
H362       H    1.0593107104    0.5145403987    0.2516207376         -0.2303
O363       O    1.0688259557    0.4866376276    0.1814677482         -0.2462
O364       O    0.9780832771    0.4447378401    0.1757618460          0.7158
C365       C    0.9197086345    0.4726221175    0.2467313354          0.7304
H366       H    1.0597232860    0.4593478473    0.1958523955          0.7281
H367       H    1.0075490014    0.4566009744    0.1647668655          0.7281
C368       C    1.0000000000    0.5000000000    0.3366692798         -0.2544
H369       H    0.9213997791    0.4647068487    0.2805185960          0.7195
H370       H    0.9094554187    0.4439389528    0.2297648536          0.7071
H371       H    0.8947952750    0.4965918354    0.2425218553         -0.2489
C338       C    1.0000000000   -0.3366692798    0.5000000000         -0.2341
C339       C    0.9658731401   -0.3098456212    0.4994249556         -0.2301
C340       C    0.9681064442   -0.2670994979    0.5038092451         -0.2319
C341       C    1.0051212557   -0.2459441674    0.5045454007          -0.242
C342       C    1.0398589321   -0.2712813602    0.4984332343         -0.2519
C343       C    1.0348611989   -0.3139745149    0.4916316673         -0.2515
C344       C    1.0045010097   -0.2028193250    0.5044685725          -0.247
H345       H    0.9389360851   -0.2483792624    0.5006179498         -0.2303
O346       O    0.9360412819   -0.3185322518    0.4712798408         -0.2462
O347       O    1.0339525245   -0.3242381540    0.4511996400          0.7158
C348       C    1.0844210099   -0.2532686646    0.4916726410          0.7304
H349       H    0.9511329377   -0.3041476045    0.4467883600          0.7281
H350       H    1.0025567846   -0.3352331345    0.4560235779          0.7281
C351       C    1.0000000000   -0.1633307202    0.5000000000         -0.2544
H352       H    1.0845812932   -0.2194814040    0.4835803138          0.7195
H353       H    1.1009508973   -0.2702351464    0.4660871922          0.7071
H354       H    1.1032051809   -0.2574781447    0.5206963860         -0.2489
C321       C    1.0000000000    0.1633307202    0.5000000000         -0.2341
C322       C    1.0098080877    0.1901543788    0.5326921192         -0.2301
C323       C    1.0133079268    0.2329005021    0.5292336849         -0.2319
C324       C    1.0027769856    0.2540558326    0.4937409044          -0.242
C325       C    0.9864116642    0.2287186398    0.4624960489         -0.2519
C326       C    0.9814474175    0.1860254851    0.4693220949         -0.2515
C327       C    1.0028919978    0.2971806750    0.4943552169          -0.247
H328       H    1.0191190500    0.2516207376    0.5579969438         -0.2303
O329       O    0.9920428173    0.1814677482    0.5696580822         -0.2462
O330       O    0.9431976932    0.1757618460    0.4824572809          0.7158
C331       C    0.9664472142    0.2467313354    0.4220868279          0.7304
H332       H    0.9641265644    0.1958523955    0.5627101669          0.7281
H333       H    0.9573213998    0.1647668655    0.5109087092          0.7281
C334       C    1.0000000000    0.3366692798    0.5000000000         -0.2544
H335       H    0.9586878393    0.2805185960    0.4243897716          0.7195
H336       H    0.9370521383    0.2297648536    0.4141004720          0.7071
H337       H    0.9884021755    0.2425218553    0.3953809758         -0.2489
C304       C    0.8366692798   -0.0000000000    0.5000000000         -0.2341
C305       C    0.8098456212   -0.0279895107    0.4804664255         -0.2301
C306       C    0.7670994979   -0.0285850284    0.4853505836         -0.2319
C307       C    0.7459441674    0.0017102752    0.5066304514          -0.242
C308       C    0.7712813602    0.0339406583    0.5209575985         -0.2519
C309       C    0.8139745149    0.0335927033    0.5125244746         -0.2515
C310       C    0.7028193250    0.0012386389    0.5062203699          -0.247
H311       H    0.7483792624   -0.0510018532    0.4664143701         -0.2303
O312       O    0.8185322518   -0.0370208121    0.4404598905         -0.2462
O313       O    0.8242381540    0.0554162525    0.4784758738          0.7158
C314       C    0.7532686646    0.0746831530    0.5402328035          0.7304
H315       H    0.8041476045   -0.0108251160    0.4285697174          0.7281
H316       H    0.8352331345    0.0266775899    0.4649461978          0.7281
C317       C    0.6633307202   -0.0000000000    0.5000000000         -0.2544
H318       H    0.7194814040    0.0793348975    0.5336091548          0.7195
H319       H    0.7702351464    0.1026828376    0.5282382201          0.7071
H320       H    0.7574781447    0.0740589954    0.5747991641         -0.2489
C287       C    1.3366692798   -0.0000000000    0.5000000000         -0.2341
C288       C    1.3098456212    0.0339164226    0.5038274698         -0.2301
C289       C    1.2670994979    0.0321114774    0.4992501546         -0.2319
C290       C    1.2459441674   -0.0046643632    0.4949868530          -0.242
C291       C    1.2712813602   -0.0398266489    0.4977578459         -0.2519
C292       C    1.3139745149   -0.0355004400    0.5050050913         -0.2515
C293       C    1.2028193250   -0.0040542729    0.4951224905          -0.247
H294       H    1.2483792624    0.0608444564    0.5052091924         -0.2303
O295       O    1.3185322518    0.0609277697    0.5346896534         -0.2462
O296       O    1.3242381540   -0.0384523473    0.5453394534          0.7158
C297       C    1.2532686646   -0.0848303928    0.5002372502          0.7304
H298       H    1.3041476045    0.0435689019    0.5576300200          0.7281
H299       H    1.3352331345   -0.0067396340    0.5435320592          0.7281
C300       C    1.1633307202   -0.0000000000    0.5000000000         -0.2544
H301       H    1.2194814040   -0.0857617979    0.5082773954          0.7195
H302       H    1.2702351464   -0.1037252786    0.5241294176          0.7071
H303       H    1.2574781447   -0.1007606161    0.4695541793         -0.2489
C270       C   -0.0000000000   -0.1633307202    0.0000000000         -0.2341
C271       C   -0.0341080003   -0.1901543788   -0.0012718344         -0.2301
C272       C   -0.0316408050   -0.2329005021   -0.0055288978         -0.2319
C273       C    0.0053596336   -0.2540558326   -0.0042617197          -0.242
C274       C    0.0397158222   -0.2287186398    0.0037205757         -0.2519
C275       C    0.0343574867   -0.1860254851    0.0102418402         -0.2515
C276       C    0.0047361398   -0.2971806750   -0.0042185552          -0.247
H277       H   -0.0609410831   -0.2516207376   -0.0039201980         -0.2303
O278       O   -0.0654186452   -0.1814677482    0.0252183669         -0.2462
O279       O    0.0312630381   -0.1757618460    0.0505655169          0.7158
C280       C    0.0838469527   -0.2467313354    0.0128817837          0.7304
H281       H   -0.0516739121   -0.1958523955    0.0504903478          0.7281
H282       H    0.0001742083   -0.1647668655    0.0440503405          0.7281
C283       C   -0.0000000000   -0.3366692798    0.0000000000         -0.2544
H284       H    0.0835692600   -0.2805185960    0.0209709330          0.7195
H285       H    0.0989686352   -0.2297648536    0.0393239297          0.7071
H286       H    0.1041736136   -0.2425218553   -0.0150833681         -0.2489
C253       C   -0.0000000000    0.1633307202    0.0000000000         -0.2341
C254       C    0.0338019491    0.1901543788    0.0047330205         -0.2301
C255       C    0.0321200459    0.2329005021    0.0001090781         -0.2319
C256       C   -0.0045286447    0.2540558326   -0.0051360787          -0.242
C257       C   -0.0397524532    0.2287186398   -0.0033063101         -0.2519
C258       C   -0.0356215813    0.1860254851    0.0040540260         -0.2515
C259       C   -0.0039223995    0.2971806750   -0.0049841760          -0.247
H260       H    0.0606834072    0.2516207376    0.0068343000         -0.2303
O261       O    0.0599783881    0.1814677482    0.0363064475         -0.2462
O262       O   -0.0396509670    0.1757618460    0.0442950321          0.7158
C263       C   -0.0848064037    0.2467313354   -0.0020311848          0.7304
H264       H    0.0420123060    0.1958523955    0.0587744380          0.7281
H265       H   -0.0079012639    0.1647668655    0.0433362767          0.7281
C266       C   -0.0000000000    0.3366692798    0.0000000000         -0.2544
H267       H   -0.0859524679    0.2805185960    0.0059811798          0.7195
H268       H   -0.1043334057    0.2297648536    0.0213471933          0.7071
H269       H   -0.0999104708    0.2425218553   -0.0331292557         -0.2489
C236       C   -0.1633307202   -0.0000000000    0.0000000000         -0.2341
C237       C   -0.1901543788    0.0237802642   -0.0244841230         -0.2301
C238       C   -0.2329005021    0.0190554322   -0.0258572959         -0.2319
C239       C   -0.2540558326   -0.0068191859    0.0006217964          -0.242
C240       C   -0.2287186398   -0.0261427403    0.0301288292         -0.2519
C241       C   -0.1860254851   -0.0177634124    0.0311415054         -0.2515
C242       C   -0.2971806750   -0.0063385989    0.0002222419          -0.247
H243       H   -0.2516207376    0.0413499842   -0.0449373160         -0.2303
O244       O   -0.1814677482    0.0647184448   -0.0269645707         -0.2462
O245       O   -0.1757618460    0.0123327039    0.0581562848          0.7158
C246       C   -0.2467313354   -0.0517187630    0.0672415153          0.7304
H247       H   -0.1958523955    0.0722414344    0.0008022321          0.7281
H248       H   -0.1647668655    0.0303076735    0.0319672923          0.7281
C249       C   -0.3366692798   -0.0000000000    0.0000000000         -0.2544
H250       H   -0.2805185960   -0.0459293468    0.0728978488          0.7195
H251       H   -0.2297648536   -0.0443828154    0.0968056192          0.7071
H252       H   -0.2425218553   -0.0857349054    0.0610669776         -0.2489
C219       C    0.1633307202   -0.0000000000    0.0000000000         -0.2341
C220       C    0.1901543788    0.0341301520   -0.0003255305         -0.2301
C221       C    0.2329005021    0.0318648544    0.0040423143         -0.2319
C222       C    0.2540558326   -0.0051543499    0.0045078381          -0.242
C223       C    0.2287186398   -0.0398464123   -0.0018581291         -0.2519
C224       C    0.1860254851   -0.0347990870   -0.0086229763         -0.2515
C225       C    0.2971806750   -0.0045335588    0.0044355465          -0.247
H226       H    0.2516207376    0.0610577652    0.0010643664         -0.2303
O227       O    0.1814677482    0.0641669795   -0.0282517949         -0.2462
O228       O    0.1757618460   -0.0335948418   -0.0490472798          0.7158
C229       C    0.2467313354   -0.0843578731   -0.0089443313          0.7304
H230       H    0.1958523955    0.0492547821   -0.0528529550          0.7281
H231       H    0.1647668655   -0.0022352084   -0.0439939393          0.7281
C232       C    0.3366692798   -0.0000000000    0.0000000000         -0.2544
H233       H    0.2805185960   -0.0844589898   -0.0170376140          0.7195
H234       H    0.2297648536   -0.1007002657   -0.0346499449          0.7071
H235       H    0.2425218553   -0.1033537322    0.0199413087         -0.2489
C202       C   -0.0000000000    0.0000000000   -0.3366692798         -0.2341
C203       C    0.0329751962    0.0088096357   -0.3098456212         -0.2301
C204       C    0.0296247640    0.0124130016   -0.2670994979         -0.2319
C205       C   -0.0061717753    0.0029659933   -0.2459441674          -0.242
C206       C   -0.0378997323   -0.0124418452   -0.2712813602         -0.2519
C207       C   -0.0312277666   -0.0176113252   -0.3139745149         -0.2515
C208       C   -0.0055542502    0.0030622758   -0.2028193250          -0.247
H209       H    0.0585513987    0.0173469672   -0.2483792624         -0.2303
O210       O    0.0693839648   -0.0100712756   -0.3185322518         -0.2462
O211       O   -0.0192615349   -0.0562427091   -0.3242381540          0.7158
C212       C   -0.0788972405   -0.0311685301   -0.2532686646          0.7304
H213       H    0.0615905408   -0.0377633909   -0.3041476045          0.7281
H214       H    0.0096061357   -0.0429905223   -0.3352331345          0.7281
C215       C   -0.0000000000   -0.0000000000   -0.1633307202         -0.2544
H216       H   -0.0768312647   -0.0389943332   -0.2194814040          0.7195
H217       H   -0.0877735847   -0.0603072137   -0.2702351464          0.7071
H218       H   -0.1049232645   -0.0084117964   -0.2574781447         -0.2489
C185       C   -0.0000000000    0.0000000000    0.3366692798         -0.2341
C186       C   -0.0034121939    0.0339607152    0.3098456212         -0.2301
C187       C    0.0011426940    0.0320998987    0.2670994979         -0.2319
C188       C    0.0049557002   -0.0047253531    0.2459441674          -0.242
C189       C    0.0017546815   -0.0398511018    0.2712813602         -0.2519
C190       C   -0.0054390875   -0.0354365420    0.3139745149         -0.2515
C191       C    0.0048275377   -0.0041136489    0.2028193250          -0.247
H192       H   -0.0044643312    0.0609036396    0.2483792624         -0.2303
O193       O   -0.0339415660    0.0613476590    0.3185322518         -0.2462
O194       O   -0.0458065487   -0.0378947114    0.3242381540          0.7158
C195       C   -0.0012751872   -0.0848211396    0.2532686646          0.7304
H196       H   -0.0570926122    0.0442707809    0.3041476045          0.7281
H197       H   -0.0436112643   -0.0062064866    0.3352331345          0.7281
C198       C   -0.0000000000    0.0000000000    0.1633307202         -0.2544
H199       H   -0.0093261268   -0.0856540986    0.2194814040          0.7195
H200       H   -0.0253967571   -0.1034222748    0.2702351464          0.7071
H201       H    0.0292106703   -0.1011255976    0.2574781447         -0.2489
loop_
_geom_bond_atom_site_label_1
_geom_bond_atom_site_label_2
_geom_bond_distance
_geom_bond_site_symmetry_2
_ccdc_geom_bond_type
Zn1          O5 1.942       .   S
Zn1          O6 1.922       .   S
Zn1         O10 1.922       .   S
Zn1         O17 1.922       .   S
Zn2          O5 1.942       .   S
Zn2          O7 1.922       .   S
Zn2          O9 1.922       .   S
Zn2         O13 1.922       .   S
Zn3          O5 1.942       .   S
Zn3          O8 1.922       .   S
Zn3         O11 1.922       .   S
Zn3         O14 1.922       .   S
Zn4          O5 1.942       .   S
Zn4         O12 1.922       .   S
Zn4         O15 1.922       .   S
Zn4         O16 1.922       .   S
O6          C18 1.304       .   A
O7          C19 1.304       .   A
O8          C20 1.304       .   A
O9          C18 1.304       .   A
O10         C20 1.304       .   A
O11         C19 1.304       .   A
O12         C21 1.304       .   A
O13         C22 1.304       .   A
O14         C21 1.304       .   A
O15         C22 1.304       .   A
O16         C23 1.304       .   A
O17         C23 1.304       .   A
C18        C215 1.540       .   S
C19        C253 1.540       .   S
C20        C236 1.540       .   S
C21        C198 1.540       .   S
C22        C219 1.540       .   S
C23        C270 1.540       .   S
Zn24        O28 1.942       .   S
Zn24        O29 1.922       .   S
Zn24        O33 1.922       .   S
Zn24        O40 1.922       .   S
Zn25        O28 1.942       .   S
Zn25        O30 1.922       .   S
Zn25        O32 1.922       .   S
Zn25        O36 1.922       .   S
Zn26        O28 1.942       .   S
Zn26        O31 1.922       .   S
Zn26        O34 1.922       .   S
Zn26        O37 1.922       .   S
Zn27        O28 1.942       .   S
Zn27        O35 1.922       .   S
Zn27        O38 1.922       .   S
Zn27        O39 1.922       .   S
O29         C41 1.304       .   A
O30         C42 1.304       .   A
O31         C43 1.304       .   A
O32         C41 1.304       .   A
O33         C43 1.304       .   A
O34         C42 1.304       .   A
O35         C44 1.304       .   A
O36         C45 1.304       .   A
O37         C44 1.304       .   A
O38         C45 1.304       .   A
O39         C46 1.304       .   A
O40         C46 1.304       .   A
C41        C185 1.540   1_655   S
C42        C300 1.540       .   S
C43        C321 1.540       .   S
C44        C202 1.540   1_656   S
C45        C351 1.540       .   S
C46        C304 1.540       .   S
Zn47        O51 1.942       .   S
Zn47        O52 1.922       .   S
Zn47        O56 1.922       .   S
Zn47        O63 1.922       .   S
Zn48        O51 1.942       .   S
Zn48        O53 1.922       .   S
Zn48        O55 1.922       .   S
Zn48        O59 1.922       .   S
Zn49        O51 1.942       .   S
Zn49        O54 1.922       .   S
Zn49        O57 1.922       .   S
Zn49        O60 1.922       .   S
Zn50        O51 1.942       .   S
Zn50        O58 1.922       .   S
Zn50        O61 1.922       .   S
Zn50        O62 1.922       .   S
O52         C64 1.304       .   A
O53         C65 1.304       .   A
O54         C66 1.304       .   A
O55         C64 1.304       .   A
O56         C66 1.304       .   A
O57         C65 1.304       .   A
O58         C67 1.304       .   A
O59         C68 1.304       .   A
O60         C67 1.304       .   A
O61         C68 1.304       .   A
O62         C69 1.304       .   A
O63         C69 1.304       .   A
C64        C266 1.540   1_655   S
C65        C355 1.540       .   S
C66        C402 1.540       .   S
C67        C283 1.540   1_665   S
C68        C406 1.540       .   S
C69        C385 1.540       .   S
Zn70        O74 1.942       .   S
Zn70        O75 1.922       .   S
Zn70        O79 1.922       .   S
Zn70        O86 1.922       .   S
Zn71        O74 1.942       .   S
Zn71        O76 1.922       .   S
Zn71        O78 1.922       .   S
Zn71        O82 1.922       .   S
Zn72        O74 1.942       .   S
Zn72        O77 1.922       .   S
Zn72        O80 1.922       .   S
Zn72        O83 1.922       .   S
Zn73        O74 1.942       .   S
Zn73        O81 1.922       .   S
Zn73        O84 1.922       .   S
Zn73        O85 1.922       .   S
O75         C87 1.304       .   A
O76         C88 1.304       .   A
O77         C89 1.304       .   A
O78         C87 1.304       .   A
O79         C89 1.304       .   A
O80         C88 1.304       .   A
O81         C90 1.304       .   A
O82         C91 1.304       .   A
O83         C90 1.304       .   A
O84         C91 1.304       .   A
O85         C92 1.304       .   A
O86         C92 1.304       .   A
C87        C334 1.540       .   S
C88        C368 1.540       .   S
C89        C440 1.540       .   S
C90        C338 1.540   1_565   S
C91        C423 1.540       .   S
C92        C372 1.540   1_556   S
Zn93        O97 1.942       .   S
Zn93        O98 1.922       .   S
Zn93       O102 1.922       .   S
Zn93       O109 1.922       .   S
Zn94        O97 1.942       .   S
Zn94        O99 1.922       .   S
Zn94       O101 1.922       .   S
Zn94       O105 1.922       .   S
Zn95        O97 1.942       .   S
Zn95       O100 1.922       .   S
Zn95       O103 1.922       .   S
Zn95       O106 1.922       .   S
Zn96        O97 1.942       .   S
Zn96       O104 1.922       .   S
Zn96       O107 1.922       .   S
Zn96       O108 1.922       .   S
O98        C110 1.304       .   A
O99        C111 1.304       .   A
O100       C112 1.304       .   A
O101       C110 1.304       .   A
O102       C112 1.304       .   A
O103       C111 1.304       .   A
O104       C113 1.304       .   A
O105       C114 1.304       .   A
O106       C113 1.304       .   A
O107       C114 1.304       .   A
O108       C115 1.304       .   A
O109       C115 1.304       .   A
C110       C232 1.540   1_565   S
C111       C457 1.540       .   S
C112       C508 1.540       .   S
C113       C249 1.540   1_665   S
C114       C491 1.540       .   S
C115       C487 1.540       .   S
Zn116      O120 1.942       .   S
Zn116      O121 1.922       .   S
Zn116      O125 1.922       .   S
Zn116      O132 1.922       .   S
Zn117      O120 1.942       .   S
Zn117      O122 1.922       .   S
Zn117      O124 1.922       .   S
Zn117      O128 1.922       .   S
Zn118      O120 1.942       .   S
Zn118      O123 1.922       .   S
Zn118      O126 1.922       .   S
Zn118      O129 1.922       .   S
Zn119      O120 1.942       .   S
Zn119      O127 1.922       .   S
Zn119      O130 1.922       .   S
Zn119      O131 1.922       .   S
O121       C133 1.304       .   A
O122       C134 1.304       .   A
O123       C135 1.304       .   A
O124       C133 1.304       .   A
O125       C135 1.304       .   A
O126       C134 1.304       .   A
O127       C136 1.304       .   A
O128       C137 1.304       .   A
O129       C136 1.304       .   A
O130       C137 1.304       .   A
O131       C138 1.304       .   A
O132       C138 1.304       .   A
C133       C287 1.540   1_465   S
C134       C470 1.540       .   S
C135       C525 1.540       .   S
C136       C317 1.540   1_565   S
C137       C542 1.540       .   S
C138       C474 1.540   1_556   S
Zn139      O143 1.942       .   S
Zn139      O144 1.922       .   S
Zn139      O148 1.922       .   S
Zn139      O155 1.922       .   S
Zn140      O143 1.942       .   S
Zn140      O145 1.922       .   S
Zn140      O147 1.922       .   S
Zn140      O151 1.922       .   S
Zn141      O143 1.942       .   S
Zn141      O146 1.922       .   S
Zn141      O149 1.922       .   S
Zn141      O152 1.922       .   S
Zn142      O143 1.942       .   S
Zn142      O150 1.922       .   S
Zn142      O153 1.922       .   S
Zn142      O154 1.922       .   S
O144       C156 1.304       .   A
O145       C157 1.304       .   A
O146       C158 1.304       .   A
O147       C156 1.304       .   A
O148       C158 1.304       .   A
O149       C157 1.304       .   A
O150       C159 1.304       .   A
O151       C160 1.304       .   A
O152       C159 1.304       .   A
O153       C160 1.304       .   A
O154       C161 1.304       .   A
O155       C161 1.304       .   A
C156       C389 1.540   1_455   S
C157       C504 1.540   1_545   S
C158       C576 1.540       .   S
C159       C419 1.540       .   S
C160       C559 1.540       .   S
C161       C521 1.540       .   S
Zn162      O166 1.942       .   S
Zn162      O167 1.922       .   S
Zn162      O171 1.922       .   S
Zn162      O178 1.922       .   S
Zn163      O166 1.942       .   S
Zn163      O168 1.922       .   S
Zn163      O170 1.922       .   S
Zn163      O174 1.922       .   S
Zn164      O166 1.942       .   S
Zn164      O169 1.922       .   S
Zn164      O172 1.922       .   S
Zn164      O175 1.922       .   S
Zn165      O166 1.942       .   S
Zn165      O173 1.922       .   S
Zn165      O176 1.922       .   S
Zn165      O177 1.922       .   S
O167       C179 1.304       .   A
O168       C180 1.304       .   A
O169       C181 1.304       .   A
O170       C179 1.304       .   A
O171       C181 1.304       .   A
O172       C180 1.304       .   A
O173       C182 1.304       .   A
O174       C183 1.304       .   A
O175       C182 1.304       .   A
O176       C183 1.304       .   A
O177       C184 1.304       .   A
O178       C184 1.304       .   A
C179       C436 1.540   1_455   S
C180       C538 1.540   1_545   S
C181       C572 1.540       .   S
C182       C453 1.540       .   S
C183       C589 1.540   1_556   S
C184       C555 1.540       .   S
C576       C577 0.038       .   A
C576       C581 0.037       .   A
C577       C578 0.038       .   A
C577       O584 0.037       .   A
C578       C579 0.037       .   A
C578       H583 0.031       .   A
C579       C580 0.038       .   A
C579       C582 0.038       .   A
C580       C581 0.038       .   A
C580       C586 0.043       .   A
C581       O585 0.037       .   A
C582       C589 0.035       .   A
O584       H587 0.028       .   A
O585       H588 0.030       .   A
C586       H590 0.031       .   A
C586       H591 0.031       .   A
C586       H592 0.031       .   A
C559       C560 0.038       .   A
C559       C564 0.037       .   A
C560       C561 0.038       .   A
C560       O567 0.037       .   A
C561       C562 0.037       .   A
C561       H566 0.031       .   A
C562       C563 0.038       .   A
C562       C565 0.038       .   A
C563       C564 0.038       .   A
C563       C569 0.043       .   A
C564       O568 0.037       .   A
C565       C572 0.035       .   A
O567       H570 0.028       .   A
O568       H571 0.030       .   A
C569       H573 0.031       .   A
C569       H574 0.031       .   A
C569       H575 0.031       .   A
C542       C543 0.038       .   A
C542       C547 0.037       .   A
C543       C544 0.038       .   A
C543       O550 0.037       .   A
C544       C545 0.037       .   A
C544       H549 0.031       .   A
C545       C546 0.038       .   A
C545       C548 0.038       .   A
C546       C547 0.038       .   A
C546       C552 0.043       .   A
C547       O551 0.037       .   A
C548       C555 0.035       .   A
O550       H553 0.028       .   A
O551       H554 0.030       .   A
C552       H556 0.031       .   A
C552       H557 0.031       .   A
C552       H558 0.031       .   A
C525       C526 0.038       .   A
C525       C530 0.037       .   A
C526       C527 0.038       .   A
C526       O533 0.037       .   A
C527       C528 0.037       .   A
C527       H532 0.031       .   A
C528       C529 0.038       .   A
C528       C531 0.038       .   A
C529       C530 0.038       .   A
C529       C535 0.043       .   A
C530       O534 0.037       .   A
C531       C538 0.035       .   A
O533       H536 0.028       .   A
O534       H537 0.030       .   A
C535       H539 0.031       .   A
C535       H540 0.031       .   A
C535       H541 0.031       .   A
C508       C509 0.038       .   A
C508       C513 0.037       .   A
C509       C510 0.038       .   A
C509       O516 0.037       .   A
C510       C511 0.037       .   A
C510       H515 0.031       .   A
C511       C512 0.038       .   A
C511       C514 0.038       .   A
C512       C513 0.038       .   A
C512       C518 0.043       .   A
C513       O517 0.037       .   A
C514       C521 0.035       .   A
O516       H519 0.028       .   A
O517       H520 0.030       .   A
C518       H522 0.031       .   A
C518       H523 0.031       .   A
C518       H524 0.031       .   A
C491       C492 0.038       .   A
C491       C496 0.037       .   A
C492       C493 0.038       .   A
C492       O499 0.037       .   A
C493       C494 0.037       .   A
C493       H498 0.031       .   A
C494       C495 0.038       .   A
C494       C497 0.038       .   A
C495       C496 0.038       .   A
C495       C501 0.043       .   A
C496       O500 0.037       .   A
C497       C504 0.035       .   A
O499       H502 0.028       .   A
O500       H503 0.030       .   A
C501       H505 0.031       .   A
C501       H506 0.031       .   A
C501       H507 0.031       .   A
C474       C475 0.038       .   A
C474       C479 0.037       .   A
C475       C476 0.038       .   A
C475       O482 0.037       .   A
C476       C477 0.037       .   A
C476       H481 0.031       .   A
C477       C478 0.038       .   A
C477       C480 0.038       .   A
C478       C479 0.038       .   A
C478       C484 0.043       .   A
C479       O483 0.037       .   A
C480       C487 0.035       .   A
O482       H485 0.028       .   A
O483       H486 0.030       .   A
C484       H488 0.031       .   A
C484       H489 0.031       .   A
C484       H490 0.031       .   A
C457       C458 0.038       .   A
C457       C462 0.037       .   A
C458       C459 0.038       .   A
C458       O465 0.037       .   A
C459       C460 0.037       .   A
C459       H464 0.031       .   A
C460       C461 0.038       .   A
C460       C463 0.038       .   A
C461       C462 0.038       .   A
C461       C467 0.043       .   A
C462       O466 0.037       .   A
C463       C470 0.035       .   A
O465       H468 0.028       .   A
O466       H469 0.030       .   A
C467       H471 0.031       .   A
C467       H472 0.031       .   A
C467       H473 0.031       .   A
C440       C441 0.038       .   A
C440       C445 0.037       .   A
C441       C442 0.038       .   A
C441       O448 0.037       .   A
C442       C443 0.037       .   A
C442       H447 0.031       .   A
C443       C444 0.038       .   A
C443       C446 0.038       .   A
C444       C445 0.038       .   A
C444       C450 0.043       .   A
C445       O449 0.037       .   A
C446       C453 0.035       .   A
O448       H451 0.028       .   A
O449       H452 0.030       .   A
C450       H454 0.031       .   A
C450       H455 0.031       .   A
C450       H456 0.031       .   A
C423       C424 0.038       .   A
C423       C428 0.037       .   A
C424       C425 0.038       .   A
C424       O431 0.037       .   A
C425       C426 0.037       .   A
C425       H430 0.031       .   A
C426       C427 0.038       .   A
C426       C429 0.038       .   A
C427       C428 0.038       .   A
C427       C433 0.043       .   A
C428       O432 0.037       .   A
C429       C436 0.035       .   A
O431       H434 0.028       .   A
O432       H435 0.030       .   A
C433       H437 0.031       .   A
C433       H438 0.031       .   A
C433       H439 0.031       .   A
C406       C407 0.038       .   A
C406       C411 0.037       .   A
C407       C408 0.038       .   A
C407       O414 0.037       .   A
C408       C409 0.037       .   A
C408       H413 0.031       .   A
C409       C410 0.038       .   A
C409       C412 0.038       .   A
C410       C411 0.038       .   A
C410       C416 0.043       .   A
C411       O415 0.037       .   A
C412       C419 0.035       .   A
O414       H417 0.028       .   A
O415       H418 0.030       .   A
C416       H420 0.031       .   A
C416       H421 0.031       .   A
C416       H422 0.031       .   A
C389       C390 0.038       .   A
C389       C394 0.037       .   A
C390       C391 0.038       .   A
C390       O397 0.037       .   A
C391       C392 0.037       .   A
C391       H396 0.031       .   A
C392       C393 0.038       .   A
C392       C395 0.038       .   A
C393       C394 0.038       .   A
C393       C399 0.043       .   A
C394       O398 0.037       .   A
C395       C402 0.035       .   A
O397       H400 0.028       .   A
O398       H401 0.030       .   A
C399       H403 0.031       .   A
C399       H404 0.031       .   A
C399       H405 0.031       .   A
C372       C373 0.038       .   A
C372       C377 0.037       .   A
C373       C374 0.038       .   A
C373       O380 0.037       .   A
C374       C375 0.037       .   A
C374       H379 0.031       .   A
C375       C376 0.038       .   A
C375       C378 0.038       .   A
C376       C377 0.038       .   A
C376       C382 0.043       .   A
C377       O381 0.037       .   A
C378       C385 0.035       .   A
O380       H383 0.028       .   A
O381       H384 0.030       .   A
C382       H386 0.031       .   A
C382       H387 0.031       .   A
C382       H388 0.031       .   A
C355       C356 0.038       .   A
C355       C360 0.037       .   A
C356       C357 0.038       .   A
C356       O363 0.037       .   A
C357       C358 0.037       .   A
C357       H362 0.031       .   A
C358       C359 0.038       .   A
C358       C361 0.038       .   A
C359       C360 0.038       .   A
C359       C365 0.043       .   A
C360       O364 0.037       .   A
C361       C368 0.035       .   A
O363       H366 0.028       .   A
O364       H367 0.030       .   A
C365       H369 0.031       .   A
C365       H370 0.031       .   A
C365       H371 0.031       .   A
C338       C339 0.038       .   A
C338       C343 0.037       .   A
C339       C340 0.038       .   A
C339       O346 0.037       .   A
C340       C341 0.037       .   A
C340       H345 0.031       .   A
C341       C342 0.038       .   A
C341       C344 0.038       .   A
C342       C343 0.038       .   A
C342       C348 0.043       .   A
C343       O347 0.037       .   A
C344       C351 0.035       .   A
O346       H349 0.028       .   A
O347       H350 0.030       .   A
C348       H352 0.031       .   A
C348       H353 0.031       .   A
C348       H354 0.031       .   A
C321       C322 0.038       .   A
C321       C326 0.037       .   A
C322       C323 0.038       .   A
C322       O329 0.037       .   A
C323       C324 0.037       .   A
C323       H328 0.031       .   A
C324       C325 0.038       .   A
C324       C327 0.038       .   A
C325       C326 0.038       .   A
C325       C331 0.043       .   A
C326       O330 0.037       .   A
C327       C334 0.035       .   A
O329       H332 0.028       .   A
O330       H333 0.030       .   A
C331       H335 0.031       .   A
C331       H336 0.031       .   A
C331       H337 0.031       .   A
C304       C305 0.038       .   A
C304       C309 0.037       .   A
C305       C306 0.038       .   A
C305       O312 0.037       .   A
C306       C307 0.037       .   A
C306       H311 0.031       .   A
C307       C308 0.038       .   A
C307       C310 0.038       .   A
C308       C309 0.038       .   A
C308       C314 0.043       .   A
C309       O313 0.037       .   A
C310       C317 0.035       .   A
O312       H315 0.028       .   A
O313       H316 0.030       .   A
C314       H318 0.031       .   A
C314       H319 0.031       .   A
C314       H320 0.031       .   A
C287       C288 0.038       .   A
C287       C292 0.037       .   A
C288       C289 0.038       .   A
C288       O295 0.037       .   A
C289       C290 0.037       .   A
C289       H294 0.031       .   A
C290       C291 0.038       .   A
C290       C293 0.038       .   A
C291       C292 0.038       .   A
C291       C297 0.043       .   A
C292       O296 0.037       .   A
C293       C300 0.035       .   A
O295       H298 0.028       .   A
O296       H299 0.030       .   A
C297       H301 0.031       .   A
C297       H302 0.031       .   A
C297       H303 0.031       .   A
C270       C271 0.038       .   A
C270       C275 0.037       .   A
C271       C272 0.038       .   A
C271       O278 0.037       .   A
C272       C273 0.037       .   A
C272       H277 0.031       .   A
C273       C274 0.038       .   A
C273       C276 0.038       .   A
C274       C275 0.038       .   A
C274       C280 0.043       .   A
C275       O279 0.037       .   A
C276       C283 0.035       .   A
O278       H281 0.028       .   A
O279       H282 0.030       .   A
C280       H284 0.031       .   A
C280       H285 0.031       .   A
C280       H286 0.031       .   A
C253       C254 0.038       .   A
C253       C258 0.037       .   A
C254       C255 0.038       .   A
C254       O261 0.037       .   A
C255       C256 0.037       .   A
C255       H260 0.031       .   A
C256       C257 0.038       .   A
C256       C259 0.038       .   A
C257       C258 0.038       .   A
C257       C263 0.043       .   A
C258       O262 0.037       .   A
C259       C266 0.035       .   A
O261       H264 0.028       .   A
O262       H265 0.030       .   A
C263       H267 0.031       .   A
C263       H268 0.031       .   A
C263       H269 0.031       .   A
C236       C237 0.038       .   A
C236       C241 0.037       .   A
C237       C238 0.038       .   A
C237       O244 0.037       .   A
C238       C239 0.037       .   A
C238       H243 0.031       .   A
C239       C240 0.038       .   A
C239       C242 0.038       .   A
C240       C241 0.038       .   A
C240       C246 0.043       .   A
C241       O245 0.037       .   A
C242       C249 0.035       .   A
O244       H247 0.028       .   A
O245       H248 0.030       .   A
C246       H250 0.031       .   A
C246       H251 0.031       .   A
C246       H252 0.031       .   A
C219       C220 0.038       .   A
C219       C224 0.037       .   A
C220       C221 0.038       .   A
C220       O227 0.037       .   A
C221       C222 0.037       .   A
C221       H226 0.031       .   A
C222       C223 0.038       .   A
C222       C225 0.038       .   A
C223       C224 0.038       .   A
C223       C229 0.043       .   A
C224       O228 0.037       .   A
C225       C232 0.035       .   A
O227       H230 0.028       .   A
O228       H231 0.030       .   A
C229       H233 0.031       .   A
C229       H234 0.031       .   A
C229       H235 0.031       .   A
C202       C203 0.038       .   A
C202       C207 0.037       .   A
C203       C204 0.038       .   A
C203       O210 0.037       .   A
C204       C205 0.037       .   A
C204       H209 0.031       .   A
C205       C206 0.038       .   A
C205       C208 0.038       .   A
C206       C207 0.038       .   A
C206       C212 0.043       .   A
C207       O211 0.037       .   A
C208       C215 0.035       .   A
O210       H213 0.028       .   A
O211       H214 0.030       .   A
C212       H216 0.031       .   A
C212       H217 0.031       .   A
C212       H218 0.031       .   A
C185       C186 0.038       .   A
C185       C190 0.037       .   A
C186       C187 0.038       .   A
C186       O193 0.037       .   A
C187       C188 0.037       .   A
C187       H192 0.031       .   A
C188       C189 0.038       .   A
C188       C191 0.038       .   A
C189       C190 0.038       .   A
C189       C195 0.043       .   A
C190       O194 0.037       .   A
C191       C198 0.035       .   A
O193       H196 0.028       .   A
O194       H197 0.030       .   A
C195       H199 0.031       .   A
C195       H200 0.031       .   A
C195       H201 0.031       .   A
