data_pcu_v1-6c_Zn_1_Ch_1-8_fer_tobacco
_audit_creation_date              2021-02-03
_audit_creation_method            'tobacco_3.0'
_symmetry_space_group_name_H-M    'P1'
_symmetry_Int_Tables_number       1
_symmetry_cell_setting            triclinic
loop_
_symmetry_equiv_pos_as_xyz
  x,y,z
_cell_length_a                    44.31248595981741
_cell_length_b                    44.31248595981741
_cell_length_c                    44.31248595981741
_cell_angle_alpha                 90.0
_cell_angle_beta                  90.0
_cell_angle_gamma                 90.0
loop_
_atom_site_label
_atom_site_type_symbol
_atom_site_fract_x
_atom_site_fract_y
_atom_site_fract_z
_atom_site_charge
Zn1       Zn   -0.0253021237   -0.0253021237    0.0253021237          1.4972
Zn2       Zn   -0.0253021237    0.0253021237   -0.0253021237          1.4936
Zn3       Zn    0.0253021237    0.0253021237    0.0253021237          1.4911
Zn4       Zn    0.0253021237   -0.0253021237   -0.0253021237          1.4948
O5         O    0.0000000000    0.0000000000    0.0000000000         -2.1335
O6         O   -0.0676242809   -0.0185952104    0.0185952104         -1.0398
O7         O   -0.0185952104    0.0676242809   -0.0185952104          -1.038
O8         O    0.0185952104    0.0185952104    0.0676242809         -1.0332
O9         O   -0.0676242809    0.0185952104   -0.0185952104           -1.04
O10        O   -0.0185952104   -0.0185952104    0.0676242809          -1.036
O11        O    0.0185952104    0.0676242809    0.0185952104         -1.0418
O12        O    0.0676242809   -0.0185952104   -0.0185952104         -1.0357
O13        O   -0.0185952104    0.0185952104   -0.0676242809         -1.0433
O14        O    0.0676242809    0.0185952104    0.0185952104         -1.0372
O15        O    0.0185952104   -0.0185952104   -0.0676242809         -1.0419
O16        O    0.0185952104   -0.0676242809   -0.0185952104          -1.041
O17        O   -0.0185952104   -0.0676242809    0.0185952104         -1.0388
C18        C   -0.0808530581   -0.0000000000    0.0000000000           0.479
C19        C    0.0000000000    0.0808530581    0.0000000000          0.4839
C20        C   -0.0000000000   -0.0000000000    0.0808530581          0.4735
C21        C    0.0808530581    0.0000000000   -0.0000000000          0.4773
C22        C    0.0000000000    0.0000000000   -0.0808530581          0.4887
C23        C   -0.0000000000   -0.0808530581   -0.0000000000          0.4792
Zn24      Zn    0.9746978763    0.0253021237    0.4746978763          1.4972
Zn25      Zn    1.0253021237   -0.0253021237    0.4746978763          1.4936
Zn26      Zn    1.0253021237    0.0253021237    0.5253021237          1.4911
Zn27      Zn    0.9746978763   -0.0253021237    0.5253021237          1.4948
O28        O    1.0000000000    0.0000000000    0.5000000000         -2.1335
O29        O    0.9814047896    0.0185952104    0.4323757191         -1.0398
O30        O    1.0676242809   -0.0185952104    0.4814047896          -1.038
O31        O    1.0185952104    0.0676242809    0.5185952104         -1.0332
O32        O    1.0185952104   -0.0185952104    0.4323757191           -1.04
O33        O    0.9814047896    0.0676242809    0.4814047896          -1.036
O34        O    1.0676242809    0.0185952104    0.5185952104         -1.0418
O35        O    0.9814047896   -0.0185952104    0.5676242809         -1.0357
O36        O    1.0185952104   -0.0676242809    0.4814047896         -1.0433
O37        O    1.0185952104    0.0185952104    0.5676242809         -1.0372
O38        O    0.9814047896   -0.0676242809    0.5185952104         -1.0419
O39        O    0.9323757191   -0.0185952104    0.5185952104          -1.041
O40        O    0.9323757191    0.0185952104    0.4814047896         -1.0388
C41        C    1.0000000000    0.0000000000    0.4191469419           0.479
C42        C    1.0808530581    0.0000000000    0.5000000000          0.4839
C43        C    1.0000000000    0.0808530581    0.5000000000          0.4735
C44        C    1.0000000000    0.0000000000    0.5808530581          0.4773
C45        C    1.0000000000   -0.0808530581    0.5000000000          0.4887
C46        C    0.9191469419    0.0000000000    0.5000000000          0.4792
Zn47      Zn    1.0253021237    0.4746978763   -0.0253021237          1.4972
Zn48      Zn    0.9746978763    0.4746978763    0.0253021237          1.4936
Zn49      Zn    1.0253021237    0.5253021237    0.0253021237          1.4911
Zn50      Zn    0.9746978763    0.5253021237   -0.0253021237          1.4948
O51        O    1.0000000000    0.5000000000    0.0000000000         -2.1335
O52        O    1.0185952104    0.4323757191   -0.0185952104         -1.0398
O53        O    0.9814047896    0.4814047896    0.0676242809          -1.038
O54        O    1.0676242809    0.5185952104    0.0185952104         -1.0332
O55        O    0.9814047896    0.4323757191    0.0185952104           -1.04
O56        O    1.0676242809    0.4814047896   -0.0185952104          -1.036
O57        O    1.0185952104    0.5185952104    0.0676242809         -1.0418
O58        O    0.9814047896    0.5676242809   -0.0185952104         -1.0357
O59        O    0.9323757191    0.4814047896    0.0185952104         -1.0433
O60        O    1.0185952104    0.5676242809    0.0185952104         -1.0372
O61        O    0.9323757191    0.5185952104   -0.0185952104         -1.0419
O62        O    0.9814047896    0.5185952104   -0.0676242809          -1.041
O63        O    1.0185952104    0.4814047896   -0.0676242809         -1.0388
C64        C    1.0000000000    0.4191469419    0.0000000000           0.479
C65        C    1.0000000000    0.5000000000    0.0808530581          0.4839
C66        C    1.0808530581    0.5000000000    0.0000000000          0.4735
C67        C    1.0000000000    0.5808530581    0.0000000000          0.4773
C68        C    0.9191469419    0.5000000000    0.0000000000          0.4887
C69        C    1.0000000000    0.5000000000   -0.0808530581          0.4792
Zn70      Zn    0.9746978763    0.4746978763    0.5253021237          1.4972
Zn71      Zn    1.0253021237    0.5253021237    0.5253021237          1.4936
Zn72      Zn    1.0253021237    0.4746978763    0.4746978763          1.4911
Zn73      Zn    0.9746978763    0.5253021237    0.4746978763          1.4948
O74        O    1.0000000000    0.5000000000    0.5000000000         -2.1335
O75        O    0.9814047896    0.4814047896    0.5676242809         -1.0398
O76        O    1.0676242809    0.5185952104    0.5185952104          -1.038
O77        O    1.0185952104    0.4323757191    0.4814047896         -1.0332
O78        O    1.0185952104    0.5185952104    0.5676242809           -1.04
O79        O    0.9814047896    0.4323757191    0.5185952104          -1.036
O80        O    1.0676242809    0.4814047896    0.4814047896         -1.0418
O81        O    0.9814047896    0.5185952104    0.4323757191         -1.0357
O82        O    1.0185952104    0.5676242809    0.5185952104         -1.0433
O83        O    1.0185952104    0.4814047896    0.4323757191         -1.0372
O84        O    0.9814047896    0.5676242809    0.4814047896         -1.0419
O85        O    0.9323757191    0.5185952104    0.4814047896          -1.041
O86        O    0.9323757191    0.4814047896    0.5185952104         -1.0388
C87        C    1.0000000000    0.5000000000    0.5808530581           0.479
C88        C    1.0808530581    0.5000000000    0.5000000000          0.4839
C89        C    1.0000000000    0.4191469419    0.5000000000          0.4735
C90        C    1.0000000000    0.5000000000    0.4191469419          0.4773
C91        C    1.0000000000    0.5808530581    0.5000000000          0.4887
C92        C    0.9191469419    0.5000000000    0.5000000000          0.4792
Zn93      Zn    0.4746978763    0.9746978763   -0.0253021237          1.4972
Zn94      Zn    0.4746978763    1.0253021237    0.0253021237          1.4936
Zn95      Zn    0.5253021237    0.9746978763    0.0253021237          1.4911
Zn96      Zn    0.5253021237    1.0253021237   -0.0253021237          1.4948
O97        O    0.5000000000    1.0000000000    0.0000000000         -2.1335
O98        O    0.4323757191    0.9814047896   -0.0185952104         -1.0398
O99        O    0.4814047896    1.0185952104    0.0676242809          -1.038
O100       O    0.5185952104    0.9323757191    0.0185952104         -1.0332
O101       O    0.4323757191    1.0185952104    0.0185952104           -1.04
O102       O    0.4814047896    0.9323757191   -0.0185952104          -1.036
O103       O    0.5185952104    0.9814047896    0.0676242809         -1.0418
O104       O    0.5676242809    1.0185952104   -0.0185952104         -1.0357
O105       O    0.4814047896    1.0676242809    0.0185952104         -1.0433
O106       O    0.5676242809    0.9814047896    0.0185952104         -1.0372
O107       O    0.5185952104    1.0676242809   -0.0185952104         -1.0419
O108       O    0.5185952104    1.0185952104   -0.0676242809          -1.041
O109       O    0.4814047896    0.9814047896   -0.0676242809         -1.0388
C110       C    0.4191469419    1.0000000000    0.0000000000           0.479
C111       C    0.5000000000    1.0000000000    0.0808530581          0.4839
C112       C    0.5000000000    0.9191469419    0.0000000000          0.4735
C113       C    0.5808530581    1.0000000000    0.0000000000          0.4773
C114       C    0.5000000000    1.0808530581    0.0000000000          0.4887
C115       C    0.5000000000    1.0000000000   -0.0808530581          0.4792
Zn116     Zn    0.4746978763    1.0253021237    0.5253021237          1.4972
Zn117     Zn    0.4746978763    0.9746978763    0.4746978763          1.4936
Zn118     Zn    0.5253021237    1.0253021237    0.4746978763          1.4911
Zn119     Zn    0.5253021237    0.9746978763    0.5253021237          1.4948
O120       O    0.5000000000    1.0000000000    0.5000000000         -2.1335
O121       O    0.4323757191    1.0185952104    0.5185952104         -1.0398
O122       O    0.4814047896    0.9814047896    0.4323757191          -1.038
O123       O    0.5185952104    1.0676242809    0.4814047896         -1.0332
O124       O    0.4323757191    0.9814047896    0.4814047896           -1.04
O125       O    0.4814047896    1.0676242809    0.5185952104          -1.036
O126       O    0.5185952104    1.0185952104    0.4323757191         -1.0418
O127       O    0.5676242809    0.9814047896    0.5185952104         -1.0357
O128       O    0.4814047896    0.9323757191    0.4814047896         -1.0433
O129       O    0.5676242809    1.0185952104    0.4814047896         -1.0372
O130       O    0.5185952104    0.9323757191    0.5185952104         -1.0419
O131       O    0.5185952104    0.9814047896    0.5676242809          -1.041
O132       O    0.4814047896    1.0185952104    0.5676242809         -1.0388
C133       C    0.4191469419    1.0000000000    0.5000000000           0.479
C134       C    0.5000000000    1.0000000000    0.4191469419          0.4839
C135       C    0.5000000000    1.0808530581    0.5000000000          0.4735
C136       C    0.5808530581    1.0000000000    0.5000000000          0.4773
C137       C    0.5000000000    0.9191469419    0.5000000000          0.4887
C138       C    0.5000000000    1.0000000000    0.5808530581          0.4792
Zn139     Zn    0.4746978763    0.5253021237   -0.0253021237          1.4972
Zn140     Zn    0.4746978763    0.4746978763    0.0253021237          1.4936
Zn141     Zn    0.5253021237    0.4746978763   -0.0253021237          1.4911
Zn142     Zn    0.5253021237    0.5253021237    0.0253021237          1.4948
O143       O    0.5000000000    0.5000000000    0.0000000000         -2.1335
O144       O    0.4323757191    0.5185952104   -0.0185952104         -1.0398
O145       O    0.4814047896    0.4323757191    0.0185952104          -1.038
O146       O    0.5185952104    0.4814047896   -0.0676242809         -1.0332
O147       O    0.4323757191    0.4814047896    0.0185952104           -1.04
O148       O    0.4814047896    0.5185952104   -0.0676242809          -1.036
O149       O    0.5185952104    0.4323757191   -0.0185952104         -1.0418
O150       O    0.5676242809    0.5185952104    0.0185952104         -1.0357
O151       O    0.4814047896    0.4814047896    0.0676242809         -1.0433
O152       O    0.5676242809    0.4814047896   -0.0185952104         -1.0372
O153       O    0.5185952104    0.5185952104    0.0676242809         -1.0419
O154       O    0.5185952104    0.5676242809    0.0185952104          -1.041
O155       O    0.4814047896    0.5676242809   -0.0185952104         -1.0388
C156       C    0.4191469419    0.5000000000    0.0000000000           0.479
C157       C    0.5000000000    0.4191469419    0.0000000000          0.4839
C158       C    0.5000000000    0.5000000000   -0.0808530581          0.4735
C159       C    0.5808530581    0.5000000000    0.0000000000          0.4773
C160       C    0.5000000000    0.5000000000    0.0808530581          0.4887
C161       C    0.5000000000    0.5808530581    0.0000000000          0.4792
Zn162     Zn    0.4746978763    0.5253021237    0.4746978763          1.4972
Zn163     Zn    0.4746978763    0.4746978763    0.5253021237          1.4936
Zn164     Zn    0.5253021237    0.4746978763    0.4746978763          1.4911
Zn165     Zn    0.5253021237    0.5253021237    0.5253021237          1.4948
O166       O    0.5000000000    0.5000000000    0.5000000000         -2.1335
O167       O    0.4323757191    0.5185952104    0.4814047896         -1.0398
O168       O    0.4814047896    0.4323757191    0.5185952104          -1.038
O169       O    0.5185952104    0.4814047896    0.4323757191         -1.0332
O170       O    0.4323757191    0.4814047896    0.5185952104           -1.04
O171       O    0.4814047896    0.5185952104    0.4323757191          -1.036
O172       O    0.5185952104    0.4323757191    0.4814047896         -1.0418
O173       O    0.5676242809    0.5185952104    0.5185952104         -1.0357
O174       O    0.4814047896    0.4814047896    0.5676242809         -1.0433
O175       O    0.5676242809    0.4814047896    0.4814047896         -1.0372
O176       O    0.5185952104    0.5185952104    0.5676242809         -1.0419
O177       O    0.5185952104    0.5676242809    0.5185952104          -1.041
O178       O    0.4814047896    0.5676242809    0.4814047896         -1.0388
C179       C    0.4191469419    0.5000000000    0.5000000000           0.479
C180       C    0.5000000000    0.4191469419    0.5000000000          0.4839
C181       C    0.5000000000    0.5000000000    0.4191469419          0.4735
C182       C    0.5808530581    0.5000000000    0.5000000000          0.4773
C183       C    0.5000000000    0.5000000000    0.5808530581          0.4887
C184       C    0.5000000000    0.5808530581    0.5000000000          0.4792
C737       C    0.5000000000    0.5000000000   -0.3843937574          -0.294
C738       C    0.5255318343    0.5009199889   -0.3678953691         -0.2934
C739       C    0.5241876166    0.5040557724   -0.3377934087         -0.2914
C740       C    0.4974936967    0.5065433486   -0.3231010788         -0.2896
C741       C    0.4721012419    0.5047316675   -0.3400671040         -0.2909
C742       C    0.4732153995    0.5013730207   -0.3700866430         -0.2931
C743       C    0.4960510814    0.5075179420   -0.2899225797         -0.2894
H744       H    0.5457805262    0.5037216868   -0.3261584786         -0.2918
H745       H    0.5476686746    0.4987765566   -0.3782097124          -0.295
H746       H    0.4515847143    0.4995309473   -0.3811743507         -0.2946
H747       H    0.4497594689    0.5051745737   -0.3301529038         -0.2907
C748       C    0.5218008706    0.5075368329   -0.2732987083         -0.2897
C749       C    0.5211393877    0.5012397019   -0.2439478597          0.7043
C750       C    0.4945570075    0.4961788016   -0.2305821530          0.6996
C751       C    0.4683413738    0.4996806742   -0.2453510184          0.7028
C752       C    0.4693361792    0.5056106341   -0.2749899308         -0.2914
C753       C    0.4955609553    0.4877962687   -0.2004037949          0.6918
H754       H    0.5422748692    0.5000908139   -0.2314845005          0.7031
H755       H    0.5440544332    0.5110566036   -0.2827703649         -0.2864
H756       H    0.4476770201    0.5073302974   -0.2862555304         -0.2898
Cl757     Cl    0.4333419507    0.4955538295   -0.2280574501          0.6988
C758       C    0.4985545788    0.4861392317   -0.1737943309          0.6898
C759       C    0.5015449657    0.4922069467   -0.1412645928          0.6944
C760       C    0.5000000000    0.5000000000   -0.1156062426          0.7006
C713       C    0.5000000000    0.5000000000    0.3843937574          -0.294
C714       C    0.4896561151    0.4766392426    0.3678953691         -0.2934
C715       C    0.4872446087    0.4790526833    0.3377934087         -0.2914
C716       C    0.4948569804    0.5047588147    0.3231010788         -0.2896
C717       C    0.5059768704    0.5276587491    0.3400671040         -0.2909
C718       C    0.5086807838    0.5253760517    0.3700866430         -0.2931
C719       C    0.4944884068    0.5064603213    0.2899225797         -0.2894
H720       H    0.4795289950    0.4588825403    0.3261584786         -0.2918
H721       H    0.4834180534    0.4552916294    0.3782097124          -0.295
H722       H    0.5184306945    0.5447724179    0.3811743507         -0.2946
H723       H    0.5138698009    0.5485645530    0.3301529038         -0.2907
C724       C    0.4849000536    0.4825622986    0.2732987083         -0.2897
C725       C    0.4909919142    0.4808358417    0.2439478597          0.7043
C726       C    0.5055705231    0.5036327673    0.2305821530          0.6996
C727       C    0.5120634918    0.5292718764    0.2453510184          0.7028
C728       C    0.5061886068    0.5305524184    0.2749899308         -0.2914
C729       C    0.5129793689    0.4995850799    0.2004037949          0.6918
H730       H    0.4842027488    0.4607875063    0.2314845005          0.7031
H731       H    0.4733611235    0.4632112540    0.2827703649         -0.2864
H732       H    0.5126425312    0.5512990633    0.2862555304         -0.2898
Cl733     Cl    0.5289034523    0.5602300126    0.2280574501          0.6988
C734       C    0.5134050082    0.4961900271    0.1737943309          0.6898
C735       C    0.5066605089    0.4956691548    0.1412645928          0.6944
C736       C    0.5000000000    0.5000000000    0.1156062426          0.7006
C689       C    0.5000000000    0.8843937574    0.5000000000          -0.294
C690       C    0.5008368838    0.8678953691    0.4744653066         -0.2934
C691       C    0.5039770258    0.8377934087    0.4757993109         -0.2914
C692       C    0.5065514714    0.8231010788    0.5024849929         -0.2896
C693       C    0.5048224464    0.8400671040    0.5278832099         -0.2909
C694       C    0.5014601912    0.8700866430    0.5267799898         -0.2931
C695       C    0.5075307550    0.7899225797    0.5039244285         -0.2894
H696       H    0.5035726620    0.8261584786    0.4542076030         -0.2918
H697       H    0.4986214125    0.8782097124    0.4523355599          -0.295
H698       H    0.4996885304    0.8811743507    0.5484165559         -0.2946
H699       H    0.5053380677    0.8301529038    0.5502234230         -0.2907
C700       C    0.5074658362    0.7732987083    0.4781747142         -0.2897
C701       C    0.5011708915    0.7439478597    0.4788566893          0.7043
C702       C    0.4961965375    0.7305821530    0.5054554008          0.6996
C703       C    0.4997837175    0.7453510184    0.5316594978          0.7028
C704       C    0.5057104081    0.7749899308    0.5306453971         -0.2914
C705       C    0.4878107814    0.7004037949    0.5044787415          0.6918
H706       H    0.4999532184    0.7314845005    0.4577250592          0.7031
H707       H    0.5109131580    0.7827703649    0.4559098134         -0.2864
H708       H    0.5075005578    0.7862555304    0.5522988443         -0.2898
Cl709     Cl    0.4957708097    0.7280574501    0.5666721675          0.6988
C710       C    0.4861440097    0.6737943309    0.5014905272          0.6898
C711       C    0.4922019595    0.6412645928    0.4984804071          0.6944
C712       C    0.5000000000    0.6156062426    0.5000000000          0.7006
C665       C    0.5000000000    1.1156062426    0.5000000000          -0.294
C666       C    0.4829959142    1.1321046309    0.4809321735         -0.2934
C667       C    0.4814398688    1.1622065913    0.4839684182         -0.2914
C668       C    0.4965624382    1.1768989212    0.5061057462         -0.2896
C669       C    0.5141640101    1.1599328960    0.5244971468         -0.2909
C670       C    0.5160384583    1.1299133570    0.5214957639         -0.2931
C671       C    0.4967329314    1.2100774203    0.5078383463         -0.2894
H672       H    0.4679152433    1.1738415214    0.4671324488         -0.2918
H673       H    0.4705169997    1.1217902876    0.4625226462          -0.295
H674       H    0.5312624535    1.1188256493    0.5369718664         -0.2946
H675       H    0.5280828297    1.1698470962    0.5419790645         -0.2907
C676       C    0.4802834212    1.2267012917    0.4880276013         -0.2897
C677       C    0.4855532986    1.2560521403    0.4845176425          0.7043
C678       C    0.5064156745    1.2694178470    0.5017512412          0.6996
C679       C    0.5204521451    1.2546489816    0.5241677542          0.7028
C680       C    0.5152521796    1.2250100692    0.5271867641         -0.2914
C681       C    0.5122279722    1.2995962051    0.4956281730          0.6918
H682       H    0.4729478839    1.2685154995    0.4675137595          0.7031
H683       H    0.4633703392    1.2172296351    0.4731427939         -0.2864
H684       H    0.5277524384    1.2137444696    0.5449580877         -0.2898
Cl685     Cl    0.5459676941    1.2719425499    0.5484771603          0.6988
C686       C    0.5115928995    1.3262056691    0.4922659958          0.6898
C687       C    0.5050131941    1.3587354072    0.4938366825          0.6944
C688       C    0.5000000000    1.3843937574    0.5000000000          0.7006
C641       C    0.5000000000    0.6156062426    0.0000000000          -0.294
C642       C    0.5184367653    0.6321046309    0.0176863401         -0.2934
C643       C    0.5197517424    0.6622065913    0.0145381828         -0.2914
C644       C    0.5029518488    0.6768989212   -0.0063548057         -0.2896
C645       C    0.4839720645    0.6599328960   -0.0233202630         -0.2909
C646       C    0.4823369371    0.6299133570   -0.0201820767         -0.2931
C647       C    0.5026470042    0.7100774203   -0.0080688772         -0.2894
H648       H    0.5345458732    0.6738415214    0.0302702855         -0.2918
H649       H    0.5323108467    0.6217902876    0.0350686262          -0.295
H650       H    0.4659544476    0.6188256493   -0.0344261567         -0.2946
H651       H    0.4687346540    0.6698470962   -0.0396656693         -0.2907
C652       C    0.5205887067    0.7267012917    0.0104012964         -0.2897
C653       C    0.5156080412    0.7560521403    0.0143108219          0.7043
C654       C    0.4934674726    0.7694178470   -0.0012465196          0.6996
C655       C    0.4777286501    0.7546489816   -0.0225023900          0.7028
C656       C    0.4826778322    0.7250100692   -0.0259170142         -0.2914
C657       C    0.4881494419    0.7995962051    0.0053104094          0.6918
H658       H    0.5294988210    0.7685154995    0.0302818818          0.7031
H659       H    0.5386091304    0.7172296351    0.0239243938         -0.2864
H660       H    0.4688321501    0.7137444696   -0.0426613715         -0.2898
Cl661     Cl    0.4503982335    0.7719425499   -0.0447518574          0.6988
C662       C    0.4890443057    0.8262056691    0.0086129496          0.6898
C663       C    0.4954817812    0.8587354072    0.0065348525          0.6944
C664       C    0.5000000000    0.8843937574    0.0000000000          0.7006
C617       C    0.5000000000    1.3843937574    0.0000000000          -0.294
C618       C    0.4883458263    1.3678953691    0.0227354608         -0.2934
C619       C    0.4860753074    1.3377934087    0.0201889331         -0.2914
C620       C    0.4951356057    1.3231010788   -0.0050432762         -0.2896
C621       C    0.5075383547    1.3400671040   -0.0272745777         -0.2909
C622       C    0.5101082353    1.3700866430   -0.0248419723         -0.2931
C623       C    0.4948642800    1.2899225797   -0.0067629720         -0.2894
H624       H    0.4772264016    1.3261584786    0.0398882282         -0.2918
H625       H    0.4809052014    1.3782097124    0.0436942562          -0.295
H626       H    0.5209441996    1.3811743507   -0.0436531832         -0.2946
H627       H    0.5166060797    1.3301529038   -0.0476982735         -0.2907
C628       C    0.4839338991    1.2732987083    0.0165518039         -0.2897
C629       C    0.4899178532    1.2439478597    0.0186215169          0.7043
C630       C    0.5057678852    1.2305821530   -0.0033104721          0.6996
C631       C    0.5137067808    1.2453510184   -0.0285393542          0.7028
C632       C    0.5079141220    1.2749899308   -0.0301515471         -0.2914
C633       C    0.5129348423    1.2004037949    0.0011515337          0.6918
H634       H    0.4820008190    1.2314845005    0.0382518273          0.7031
H635       H    0.4713143785    1.2827703649    0.0352161425         -0.2864
H636       H    0.5155361235    1.2862555304   -0.0504980827         -0.2898
Cl637     Cl    0.5322781047    1.2280574501   -0.0584909218          0.6988
C638       C    0.5131669409    1.1737943309    0.0045652828          0.6898
C639       C    0.5064037439    1.1412645928    0.0047021976          0.6944
C640       C    0.5000000000    1.1156062426    0.0000000000          0.7006
C593       C    0.5000000000    1.0000000000   -0.1156062426          -0.294
C594       C    0.4744706580    1.0009867321   -0.1321046309         -0.2934
C595       C    0.4758230688    1.0041189907   -0.1622065913         -0.2914
C596       C    0.5025234006    1.0065367742   -0.1768989212         -0.2896
C597       C    0.5279110325    1.0046587173   -0.1599328960         -0.2909
C598       C    0.5267880984    1.0013029947   -0.1299133570         -0.2931
C599       C    0.5039685588    1.0075075929   -0.2100774203         -0.2894
H600       H    0.4542293596    1.0038413553   -0.1738415214         -0.2918
H601       H    0.4523282899    0.9989011780   -0.1217902876          -0.295
H602       H    0.5484138941    0.9994043799   -0.1188256493         -0.2946
H603       H    0.5502538870    1.0050432154   -0.1698470962         -0.2907
C604       C    0.4782189069    1.0075937998   -0.2267012917         -0.2897
C605       C    0.4788639254    1.0012949610   -0.2560521403          0.7043
C606       C    0.5054329844    0.9961645854   -0.2694178470          0.6996
C607       C    0.5316576832    0.9995979122   -0.2546489816          0.7028
C608       C    0.5306783835    1.0055304524   -0.2250100692         -0.2914
C609       C    0.5044071261    0.9877847057   -0.2995962051          0.6918
H610       H    0.4577255127    1.0002013301   -0.2685154995          0.7031
H611       H    0.4559746219    1.0111717345   -0.2172296351         -0.2864
H612       H    0.5523419642    1.0071934877   -0.2137444696         -0.2898
Cl613     Cl    0.5666461982    0.9953795847   -0.2719425499          0.6988
C614       C    0.5014091809    0.9861355004   -0.3262056691          0.6898
C615       C    0.4984346667    0.9922110122   -0.3587354072          0.6944
C616       C    0.5000000000    1.0000000000   -0.3843937574          0.7006
C569       C    0.5000000000    1.0000000000    0.1156062426          -0.294
C570       C    0.5255301712    1.0009650386    0.1321046309         -0.2934
C571       C    0.5241804225    1.0040984453    0.1622065913         -0.2914
C572       C    0.4974821548    1.0065389160    0.1768989212         -0.2896
C573       C    0.4720929362    1.0046824325    0.1599328960         -0.2909
C574       C    0.4732130185    1.0013257570    0.1299133570         -0.2931
C575       C    0.4960378221    1.0075109624    0.2100774203         -0.2894
H576       H    0.5457738880    1.0038024611    0.1738415214         -0.2918
H577       H    0.5476707592    0.9988606702    0.1217902876          -0.295
H578       H    0.4515856173    0.9994455189    0.1188256493         -0.2946
H579       H    0.4497504165    1.0050859159    0.1698470962         -0.2907
C580       C    0.5217875379    1.0075752890    0.2267012917         -0.2897
C581       C    0.5211371673    1.0012770006    0.2560521403          0.7043
C582       C    0.4945637585    0.9961692033    0.2694178470          0.6996
C583       C    0.4683419866    0.9996248129    0.2546489816          0.7028
C584       C    0.4693263269    1.0055565188    0.2250100692         -0.2914
C585       C    0.4955824958    0.9877884550    0.2995962051          0.6918
H586       H    0.5422746431    1.0001654081    0.2685154995          0.7031
H587       H    0.5440348552    1.0111343207    0.2172296351         -0.2864
H588       H    0.4476641672    1.0072379617    0.2137444696         -0.2898
Cl589     Cl    0.4333498997    0.9954362178    0.2719425499          0.6988
C590       C    0.4985790385    0.9861367029    0.3262056691          0.6898
C591       C    0.5015587142    0.9922096849    0.3587354072          0.6944
C592       C    0.5000000000    1.0000000000    0.3843937574          0.7006
C545       C    0.8843937574    0.5000000000    0.5000000000          -0.294
C546       C    0.8678953691    0.4823659779    0.5184868117         -0.2934
C547       C    0.8377934087    0.4855178490    0.5197928621         -0.2914
C548       C    0.8231010788    0.5063631453    0.5029338284         -0.2896
C549       C    0.8400671040    0.5232747486    0.4839060428         -0.2909
C550       C    0.8700866430    0.5201319412    0.4822798151         -0.2931
C551       C    0.7899225797    0.5080763460    0.5026241275         -0.2894
H552       H    0.8261584786    0.4698277339    0.5346315159         -0.2918
H553       H    0.8782097124    0.4650230787    0.5324100961         -0.2958
H554       H    0.8811743507    0.5343295385    0.4658570258         -0.2946
H555       H    0.8301529038    0.5395769087    0.4686223730         -0.2907
C556       C    0.7732987083    0.4896570907    0.5206180998         -0.2897
C557       C    0.7439478597    0.4857334664    0.5156485332          0.7043
C558       C    0.7305821530    0.5012280024    0.4934639664          0.6996
C559       C    0.7453510184    0.5224391860    0.4776649711          0.7028
C560       C    0.7749899308    0.5258678217    0.4826044568         -0.2914
C561       C    0.7004037949    0.4946560292    0.4881645384          0.6918
H562       H    0.7314845005    0.4698018350    0.5295845169          0.7031
H563       H    0.7827703649    0.4761851148    0.5386767735         -0.2864
H564       H    0.7862555304    0.5425728752    0.4687113794         -0.2898
Cl565     Cl    0.7280574501    0.5446111137    0.4502716127          0.6988
C566       C    0.6737943309    0.4913560382    0.4890687575          0.6898
C567       C    0.6412645928    0.4934523697    0.4955003182          0.6944
C568       C    0.6156062426    0.5000000000    0.5000000000          0.7006
C521       C    1.1156062426    0.5000000000    0.5000000000          -0.294
C522       C    1.1321046309    0.5191431259    0.4830807308         -0.2934
C523       C    1.1622065913    0.5203285425    0.4862799255         -0.2914
C524       C    1.1768989212    0.5026900729    0.5064699672         -0.2896
C525       C    1.1599328960    0.4830337970    0.5226467953         -0.2909
C526       C    1.1299133570    0.4815280898    0.5194444991         -0.2931
C527       C    1.2100774203    0.5023155370    0.5081701713         -0.2894
H528       H    1.1738415214    0.5357523224    0.4711646229         -0.2918
H529       H    1.1217902876    0.5337149609    0.4662790753          -0.295
H530       H    1.1188256493    0.4645779951    0.5330082031         -0.2946
H531       H    1.1698470962    0.4671420797    0.5383568020         -0.2907
C532       C    1.2267012917    0.5209959980    0.4904475197         -0.2897
C533       C    1.2560521403    0.5161790150    0.4863380071          0.7043
C534       C    1.2694178470    0.4934220477    0.5009789119          0.6996
C535       C    1.2546489816    0.4768289574    0.5215748318          0.7028
C536       C    1.2250100692    0.4816346784    0.5251885705         -0.2914
C537       C    1.2995962051    0.4883760117    0.4942104343          0.6918
H538       H    1.2685154995    0.5307099474    0.4709470838          0.7031
H539       H    1.2172296351    0.5395532418    0.4776710361         -0.2864
H540       H    1.2137444696    0.4671172507    0.5413539875         -0.2898
Cl541     Cl    1.2719425499    0.4486133829    0.5426905090          0.6988
C542       C    1.3262056691    0.4894048951    0.4909471611          0.6898
C543       C    1.3587354072    0.4957522089    0.4932862180          0.6944
C544       C    1.3843937574    0.5000000000    0.5000000000          0.7006
C497       C    0.6156062426    0.5000000000    0.0000000000          -0.294
C498       C    0.6321046309    0.5250711658   -0.0049150368         -0.2934
C499       C    0.6622065913    0.5244759097   -0.0015556128         -0.2914
C500       C    0.6768989212    0.4990486958    0.0069420449         -0.2896
C501       C    0.6599328960    0.4739103081    0.0109570690         -0.2909
C502       C    0.6299133570    0.4742308196    0.0074329907         -0.2931
C503       C    0.7100774203    0.4978657513    0.0082193913         -0.2894
H504       H    0.6738415214    0.5454261038   -0.0067953385         -0.2918
H505       H    0.6217902876    0.5461392202   -0.0120404202          -0.295
H506       H    0.6188256493    0.4527485614    0.0105622655         -0.2946
H507       H    0.6698470962    0.4522556705    0.0164731959         -0.2907
C508       C    0.7267012917    0.5229440680    0.0023772995         -0.2897
C509       C    0.7560521403    0.5208667583   -0.0036040216          0.7043
C510       C    0.7694178470    0.4938301719   -0.0024821255          0.6996
C511       C    0.7546489816    0.4690995396    0.0068943548          0.7028
C512       C    0.7250100692    0.4714178584    0.0124422787         -0.2914
C513       C    0.7995962051    0.4928999617   -0.0108731610          0.6918
H514       H    0.7685154995    0.5411860851   -0.0095330584          0.7031
H515       H    0.7172296351    0.5454146901    0.0007399300         -0.2864
H516       H    0.7137444696    0.4507185020    0.0190462972         -0.2898
Cl517     Cl    0.7719425499    0.4340793905    0.0108414583          0.6988
C518       C    0.8262056691    0.4954378902   -0.0131680406          0.6898
C519       C    0.8587354072    0.4997307710   -0.0079401583          0.6944
C520       C    0.8843937574    0.5000000000    0.0000000000          0.7006
C473       C    1.1156062426    0.5000000000    0.0000000000          -0.294
C474       C    1.1321046309    0.5085401505   -0.0240787618         -0.2934
C475       C    1.1622065913    0.5111279562   -0.0218554038         -0.2914
C476       C    1.1768989212    0.5054895257    0.0043545465         -0.2896
C477       C    1.1599328960    0.4961406185    0.0280327408         -0.2909
C478       C    1.1299133570    0.4932711778    0.0259619522         -0.2931
C479       C    1.2100774203    0.5059862370    0.0060231534         -0.2894
H480       H    1.1738415214    0.5172896992   -0.0425531883         -0.2918
H481       H    1.1217902876    0.5131391976   -0.0458384210          -0.295
H482       H    1.1188256493    0.4850222554    0.0460426657         -0.2946
H483       H    1.1698470962    0.4898579322    0.0494775266         -0.2907
C484       C    1.2267012917    0.5137322406   -0.0185339521         -0.2897
C485       C    1.2560521403    0.5075268717   -0.0197928466          0.7043
C486       C    1.2694178470    0.4947214095    0.0040452697          0.6996
C487       C    1.2546489816    0.4901940607    0.0301033908          0.7028
C488       C    1.2250100692    0.4961492205    0.0309341336         -0.2914
C489       C    1.2995962051    0.4870265979    0.0005718502          0.6918
H490       H    1.2685154995    0.5127740904   -0.0402988266          0.7031
H491       H    1.2172296351    0.5237684587   -0.0387053219         -0.2864
H492       H    1.2137444696    0.4912893003    0.0521109508         -0.2898
Cl493     Cl    1.2719425499    0.4757534872    0.0622508682          0.6988
C494       C    1.3262056691    0.4863443883   -0.0027810803          0.6898
C495       C    1.3587354072    0.4930298635   -0.0038125839          0.6944
C496       C    1.3843937574    0.5000000000    0.0000000000          0.7006
C449       C    1.0000000000    0.5000000000   -0.3843937574          -0.294
C450       C    1.0255301712    0.5009650386   -0.3678953691         -0.2934
C451       C    1.0241804225    0.5040984453   -0.3377934087         -0.2914
C452       C    0.9974821548    0.5065389160   -0.3231010788         -0.2896
C453       C    0.9720929362    0.5046824325   -0.3400671040         -0.2909
C454       C    0.9732130185    0.5013257570   -0.3700866430         -0.2931
C455       C    0.9960378221    0.5075109624   -0.2899225797         -0.2894
H456       H    1.0457738880    0.5038024611   -0.3261584786         -0.2918
H457       H    1.0476707592    0.4988606702   -0.3782097124          -0.295
H458       H    0.9515856173    0.4994455189   -0.3811743507         -0.2946
H459       H    0.9497504165    0.5050859159   -0.3301529038         -0.2907
C460       C    1.0217875379    0.5075752890   -0.2732987083         -0.2897
C461       C    1.0211371673    0.5012770006   -0.2439478597          0.7043
C462       C    0.9945637585    0.4961692033   -0.2305821530          0.6996
C463       C    0.9683419866    0.4996248129   -0.2453510184          0.7028
C464       C    0.9693263269    0.5055565188   -0.2749899308         -0.2914
C465       C    0.9955824958    0.4877884550   -0.2004037949          0.6918
H466       H    1.0422746431    0.5001654081   -0.2314845005          0.7031
H467       H    1.0440348552    0.5111343207   -0.2827703649         -0.2864
H468       H    0.9476641672    0.5072379617   -0.2862555304         -0.2898
Cl469     Cl    0.9333498997    0.4954362178   -0.2280574501          0.6988
C470       C    0.9985790385    0.4861367029   -0.1737943309          0.6898
C471       C    1.0015587142    0.4922096849   -0.1412645928          0.6944
C472       C    1.0000000000    0.5000000000   -0.1156062426          0.7006
C425       C    1.0000000000    0.5000000000    0.3843937574          -0.294
C426       C    0.9896561151    0.4766392426    0.3678953691         -0.2934
C427       C    0.9872446087    0.4790526833    0.3377934087         -0.2914
C428       C    0.9948569804    0.5047588147    0.3231010788         -0.2896
C429       C    1.0059768704    0.5276587491    0.3400671040         -0.2909
C430       C    1.0086807838    0.5253760517    0.3700866430         -0.2931
C431       C    0.9944884068    0.5064603213    0.2899225797         -0.2894
H432       H    0.9795289950    0.4588825403    0.3261584786         -0.2918
H433       H    0.9834180534    0.4552916294    0.3782097124          -0.295
H434       H    1.0184306945    0.5447724179    0.3811743507         -0.2946
H435       H    1.0138698009    0.5485645530    0.3301529038         -0.2907
C436       C    0.9849000536    0.4825622986    0.2732987083         -0.2897
C437       C    0.9909919142    0.4808358417    0.2439478597          0.7043
C438       C    1.0055705231    0.5036327673    0.2305821530          0.6996
C439       C    1.0120634918    0.5292718764    0.2453510184          0.7028
C440       C    1.0061886068    0.5305524184    0.2749899308         -0.2914
C441       C    1.0129793689    0.4995850799    0.2004037949          0.6918
H442       H    0.9842027488    0.4607875063    0.2314845005          0.7031
H443       H    0.9733611235    0.4632112540    0.2827703649         -0.2864
H444       H    1.0126425312    0.5512990633    0.2862555304         -0.2898
Cl445     Cl    1.0289034523    0.5602300126    0.2280574501          0.6988
C446       C    1.0134050082    0.4961900271    0.1737943309          0.6898
C447       C    1.0066605089    0.4956691548    0.1412645928          0.6944
C448       C    1.0000000000    0.5000000000    0.1156062426          0.7006
C401       C    1.0000000000   -0.1156062426    0.5000000000          -0.294
C402       C    1.0255301712   -0.1321046309    0.5009650386         -0.2934
C403       C    1.0241804225   -0.1622065913    0.5040984453         -0.2914
C404       C    0.9974821548   -0.1768989212    0.5065389160         -0.2896
C405       C    0.9720929362   -0.1599328960    0.5046824325         -0.2909
C406       C    0.9732130185   -0.1299133570    0.5013257570         -0.2931
C407       C    0.9960378221   -0.2100774203    0.5075109624         -0.2894
H408       H    1.0457738880   -0.1738415214    0.5038024611         -0.2918
H409       H    1.0476707592   -0.1217902876    0.4988606702          -0.295
H410       H    0.9515856173   -0.1188256493    0.4994455189         -0.2946
H411       H    0.9497504165   -0.1698470962    0.5050859159         -0.2907
C412       C    1.0217875379   -0.2267012917    0.5075752890         -0.2897
C413       C    1.0211371673   -0.2560521403    0.5012770006          0.7043
C414       C    0.9945637585   -0.2694178470    0.4961692033          0.6996
C415       C    0.9683419866   -0.2546489816    0.4996248129          0.7028
C416       C    0.9693263269   -0.2250100692    0.5055565188         -0.2914
C417       C    0.9955824958   -0.2995962051    0.4877884550          0.6918
H418       H    1.0422746431   -0.2685154995    0.5001654081          0.7031
H419       H    1.0440348552   -0.2172296351    0.5111343207         -0.2864
H420       H    0.9476641672   -0.2137444696    0.5072379617         -0.2898
Cl421     Cl    0.9333498997   -0.2719425499    0.4954362178          0.6988
C422       C    0.9985790385   -0.3262056691    0.4861367029          0.6898
C423       C    1.0015587142   -0.3587354072    0.4922096849          0.6944
C424       C    1.0000000000   -0.3843937574    0.5000000000          0.7006
C377       C    1.0000000000    0.1156062426    0.5000000000          -0.294
C378       C    0.9752259300    0.1321046309    0.5062423071         -0.2934
C379       C    0.9771965690    0.1622065913    0.5090273818         -0.2914
C380       C    1.0038200501    0.1768989212    0.5058740263         -0.2896
C381       C    1.0282712345    0.1599328960    0.4987889341         -0.2909
C382       C    1.0264789268    0.1299133570    0.4957377887         -0.2931
C383       C    1.0054346666    0.2100774203    0.5065251674         -0.2894
H384       H    0.9560117971    0.1738415214    0.5132191354         -0.2918
H385       H    0.9531306531    0.1217902876    0.5087785919          -0.295
H386       H    1.0472452640    0.1188256493    0.4894101495         -0.2946
H387       H    1.0502110620    0.1698470962    0.4945468880         -0.2907
C388       C    0.9802589069    0.2267012917    0.5119319343         -0.2897
C389       C    0.9795880337    0.2560521403    0.5056357968          0.7043
C390       C    1.0045228816    0.2694178470    0.4951244213          0.6996
C391       C    1.0308909127    0.2546489816    0.4930629908          0.7028
C392       C    1.0311590102    0.2250100692    0.4990698357         -0.2914
C393       C    1.0017870661    0.2995962051    0.4871375520          0.6918
H394       H    0.9586800608    0.2685154995    0.5089350674          0.7031
H395       H    0.9592345503    0.2172296351    0.5200304688         -0.2864
H396       H    1.0526985051    0.2137444696    0.4962191213         -0.2898
Cl397     Cl    1.0642519145    0.2719425499    0.4817036763          0.6988
C398       C    0.9985129740    0.3262056691    0.4861436335          0.6898
C399       C    0.9968584963    0.3587354072    0.4927027708          0.6944
C400       C    1.0000000000    0.3843937574    0.5000000000          0.7006
C353       C    0.6156062426   -0.0000000000    0.5000000000          -0.294
C354       C    0.6321046309   -0.0126893220    0.5221743556         -0.2934
C355       C    0.6622065913   -0.0148400997    0.5195259194         -0.2914
C356       C    0.6768989212   -0.0046268620    0.4947379552         -0.2896
C357       C    0.6599328960    0.0087870116    0.4731017136         -0.2909
C358       C    0.6299133570    0.0112420819    0.4756501416         -0.2931
C359       C    0.7100774203   -0.0048186653    0.4930075845         -0.2894
H360       H    0.6738415214   -0.0245872432    0.5387965850         -0.2918
H361       H    0.6217902876   -0.0210877110    0.5427680699          -0.295
H362       H    0.6188256493    0.0229332556    0.4573581697         -0.2946
H363       H    0.6698470962    0.0187861183    0.4531174985         -0.2907
C364       C    0.7267012917   -0.0168116549    0.5157939884         -0.2897
C365       C    0.7560521403   -0.0109294167    0.5181372111          0.7043
C366       C    0.7694178470    0.0059142881    0.4969587961          0.6996
C367       C    0.7546489816    0.0150071608    0.4721224875          0.7028
C368       C    0.7250100692    0.0092949348    0.4702451129         -0.2914
C369       C    0.7995962051    0.0128680492    0.5017462771          0.6918
H370       H    0.7685154995   -0.0197424998    0.5373819008          0.7031
H371       H    0.7172296351   -0.0302777237    0.5338570675         -0.2864
H372       H    0.7137444696    0.0178462981    0.4502713651         -0.2898
Cl373     Cl    0.7719425499    0.0349387655    0.4430583927          0.6988
C374       C    0.8262056691    0.0129426146    0.5051670947          0.6898
C375       C    0.8587354072    0.0061802918    0.5049922532          0.6944
C376       C    0.8843937574   -0.0000000000    0.5000000000          0.7006
C329       C    1.3843937574   -0.0000000000    0.5000000000          -0.294
C330       C    1.3678953691   -0.0115921369    0.4772328459         -0.2934
C331       C    1.3377934087   -0.0138695911    0.4797731730         -0.2914
C332       C    1.3231010788   -0.0048781279    0.5050299936         -0.2896
C333       C    1.3400671040    0.0074639563    0.5272950314         -0.2909
C334       C    1.3700866430    0.0100404604    0.5248694424         -0.2931
C335       C    1.2899225797   -0.0051541417    0.5067489432         -0.2894
H336       H    1.3261584786   -0.0226647493    0.4600498226         -0.2918
H337       H    1.3782097124   -0.0189755852    0.4562538399          -0.295
H338       H    1.3811743507    0.0208250913    0.5437101301         -0.2946
H339       H    1.3301529038    0.0164759577    0.5477433765         -0.2907
C340       C    1.2732987083   -0.0160209089    0.4834044497         -0.2897
C341       C    1.2439478597   -0.0100313335    0.4813510611          0.7043
C342       C    1.2305821530    0.0057588370    0.5033261872          0.6996
C343       C    1.2453510184    0.0136289108    0.5285766228          0.7028
C344       C    1.2749899308    0.0078318775    0.5301730147         -0.2914
C345       C    1.2004037949    0.0129379341    0.4988837404          0.6918
H346       H    1.2314845005   -0.0178948117    0.4616992360          0.7031
H347       H    1.2827703649   -0.0285894899    0.4647057705         -0.2864
H348       H    1.2862555304    0.0153983711    0.5505402578         -0.2898
Cl349     Cl    1.2280574501    0.0321184958    0.5585787180          0.6988
C350       C    1.1737943309    0.0131793402    0.4954706369          0.6898
C351       C    1.1412645928    0.0064165417    0.4953152811          0.6944
C352       C    1.1156062426   -0.0000000000    0.5000000000          0.7006
C305       C   -0.0000000000   -0.1156062426    0.0000000000          -0.294
C306       C   -0.0076932047   -0.1321046309   -0.0243625849         -0.2934
C307       C   -0.0042882390   -0.1622065913   -0.0241474862         -0.2914
C308       C    0.0070049208   -0.1768989212    0.0001674873         -0.2896
C309       C    0.0138113121   -0.1599328960    0.0246977133         -0.2909
C310       C    0.0102735128   -0.1299133570    0.0247740781         -0.2931
C311       C    0.0084067677   -0.2100774203    0.0011998615         -0.2894
H312       H   -0.0118423506   -0.1738415214   -0.0443786691         -0.2918
H313       H   -0.0171343060   -0.1217902876   -0.0444996058          -0.295
H314       H    0.0157900785   -0.1188256493    0.0457704416         -0.2946
H315       H    0.0217190144   -0.1698470962    0.0455979341         -0.2907
C316       C   -0.0002084556   -0.2267012917   -0.0230659567         -0.2897
C317       C   -0.0059193590   -0.2560521403   -0.0203315460          0.7043
C318       C   -0.0017751926   -0.2694178470    0.0064090886          0.6996
C319       C    0.0103132068   -0.2546489816    0.0299333985          0.7028
C320       C    0.0155664379   -0.2250100692    0.0270080568         -0.2914
C321       C   -0.0100091641   -0.2995962051    0.0082736212          0.6918
H322       H   -0.0140877552   -0.2685154995   -0.0398585996          0.7031
H323       H   -0.0043532525   -0.2172296351   -0.0452116220         -0.2864
H324       H    0.0244481463   -0.2137444696    0.0468371181         -0.2898
Cl325     Cl    0.0181593146   -0.2719425499    0.0642907712          0.6988
C326       C   -0.0125739570   -0.3262056691    0.0060088055          0.6898
C327       C   -0.0078599936   -0.3587354072    0.0011571947          0.6944
C328       C   -0.0000000000   -0.3843937574    0.0000000000          0.7006
C281       C    0.0000000000    0.3843937574    0.0000000000          -0.294
C282       C    0.0049459386    0.3678953691   -0.0250650879         -0.2934
C283       C    0.0078296947    0.3377934087   -0.0232419011         -0.2914
C284       C    0.0060646758    0.3231010788    0.0035095120         -0.2896
C285       C    0.0002603060    0.3400671040    0.0282959648         -0.2909
C286       C   -0.0028798901    0.3700866430    0.0266647003         -0.2931
C287       C    0.0067988753    0.2899225797    0.0050880944         -0.2894
H288       H    0.0109144492    0.3261584786   -0.0446159426         -0.2918
H289       H    0.0063301285    0.3782097124   -0.0472623405          -0.295
H290       H   -0.0081193950    0.3811743507    0.0477319110         -0.2946
H291       H   -0.0028354200    0.3301529038    0.0504266554         -0.2907
C292       C    0.0108895210    0.2732987083   -0.0203347029         -0.2897
C293       C    0.0045670207    0.2439478597   -0.0206773522          0.7043
C294       C   -0.0046338551    0.2305821530    0.0047702319          0.6996
C295       C   -0.0053217055    0.2453510184    0.0312097746          0.7028
C296       C    0.0006909543    0.2749899308    0.0311652323         -0.2914
C297       C   -0.0127521510    0.2004037949    0.0024533285          0.6918
H298       H    0.0067748890    0.2314845005   -0.0417285716          0.7031
H299       H    0.0178841130    0.2827703649   -0.0417516475         -0.2864
H300       H   -0.0010361334    0.2862555304    0.0528238006         -0.2898
Cl301     Cl   -0.0149313241    0.2280574501    0.0651162003          0.6988
C302       C   -0.0139149354    0.1737943309   -0.0007646655          0.6898
C303       C   -0.0074506787    0.1412645928   -0.0027578952          0.6944
C304       C    0.0000000000    0.1156062426    0.0000000000          0.7006
C257       C   -0.3843937574   -0.0000000000    0.0000000000          -0.294
C258       C   -0.3678953691    0.0108621836    0.0231243142         -0.2934
C259       C   -0.3377934087    0.0074588293    0.0233635603         -0.2914
C260       C   -0.3231010788   -0.0069650611    0.0007647820         -0.2896
C261       C   -0.3400671040   -0.0169705703   -0.0226435228         -0.2909
C262       C   -0.3700866430   -0.0134742888   -0.0231892982         -0.2931
C263       C   -0.2899225797   -0.0084916549   -0.0000721664         -0.2894
H264       H   -0.3261584786    0.0176341901    0.0424115889         -0.2918
H265       H   -0.3782097124    0.0228952897    0.0418282807          -0.295
H266       H   -0.3811743507   -0.0217318452   -0.0432664629         -0.2946
H267       H   -0.3301529038   -0.0275852854   -0.0423076732         -0.2907
C268       C   -0.2732987083    0.0032715136    0.0228337253         -0.2897
C269       C   -0.2439478597    0.0085684398    0.0193647209          0.7043
C270       C   -0.2305821530    0.0009078390   -0.0065881373          0.6996
C271       C   -0.2453510184   -0.0141991794   -0.0282975950          0.7028
C272       C   -0.2749899308   -0.0190171216   -0.0247001661         -0.2914
C273       C   -0.2004037949    0.0088210462   -0.0095302318          0.6918
H274       H   -0.2314845005    0.0192590764    0.0376332404          0.7031
H275       H   -0.2827703649    0.0103221793    0.0442322754         -0.2864
H276       H   -0.2862555304   -0.0304548747   -0.0431732336         -0.2898
Cl277     Cl   -0.2280574501   -0.0265409753   -0.0613077532          0.6988
C278       C   -0.1737943309    0.0116640355   -0.0076262977          0.6898
C279       C   -0.1412645928    0.0076365336   -0.0021913361          0.6944
C280       C   -0.1156062426   -0.0000000000    0.0000000000          0.7006
C233       C    0.1156062426   -0.0000000000    0.0000000000          -0.294
C234       C    0.1321046309   -0.0181401269    0.0179904625         -0.2934
C235       C    0.1622065913   -0.0195072698    0.0148646059         -0.2914
C236       C    0.1768989212   -0.0030571088   -0.0063048436         -0.2896
C237       C    0.1599328960    0.0156379488   -0.0235835523         -0.2909
C238       C    0.1299133570    0.0173250321   -0.0204729888         -0.2931
C239       C    0.2100774203   -0.0027808079   -0.0080237471         -0.2894
H240       H    0.1738415214   -0.0340377610    0.0308405312         -0.2918
H241       H    0.1217902876   -0.0317232564    0.0356010444          -0.295
H242       H    0.1188256493    0.0334684053   -0.0349875085         -0.2946
H243       H    0.1698470962    0.0306014604   -0.0401800672         -0.2907
C244       C    0.2267012917   -0.0204129069    0.0107422085         -0.2897
C245       C    0.2560521403   -0.0153679221    0.0145683748          0.7043
C246       C    0.2694178470    0.0065108970   -0.0013549705          0.6996
C247       C    0.2546489816    0.0218940997   -0.0228696082          0.7028
C248       C    0.2250100692    0.0168888233   -0.0262014650         -0.2914
C249       C    0.2995962051    0.0119372215    0.0051126235          0.6918
H250       H    0.2685154995   -0.0289912138    0.0307682033          0.7031
H251       H    0.2172296351   -0.0382059763    0.0245630809         -0.2864
H252       H    0.2137444696    0.0304541650   -0.0431737341         -0.2898
Cl253     Cl    0.2719425499    0.0488507723   -0.0455704512          0.6988
C254       C    0.3262056691    0.0110973963    0.0084295869          0.6898
C255       C    0.3587354072    0.0046262560    0.0064588199          0.6944
C256       C    0.3843937574   -0.0000000000    0.0000000000          0.7006
C209       C    0.0000000000    0.0000000000   -0.3843937574          -0.294
C210       C   -0.0254999244   -0.0015731482   -0.3678953691         -0.2934
C211       C   -0.0240758900   -0.0046735006   -0.3377934087         -0.2914
C212       C    0.0026729525   -0.0064770589   -0.3231010788         -0.2896
C213       C    0.0280107212   -0.0040160778   -0.3400671040         -0.2909
C214       C    0.0268109675   -0.0006870470   -0.3700866430         -0.2931
C215       C    0.0041400389   -0.0074144108   -0.2899225797         -0.2894
H216       H   -0.0456702768   -0.0048921725   -0.3261584786         -0.2918
H217       H   -0.0476843721    0.0000030126   -0.3782097124          -0.295
H218       H    0.0483874210    0.0017080378   -0.3811743507         -0.2946
H219       H    0.0503565112   -0.0038870246   -0.3301529038         -0.2907
C220       C   -0.0216008317   -0.0080923346   -0.2732987083         -0.2897
C221       C   -0.0211007340   -0.0017803364   -0.2439478597          0.7043
C222       C    0.0053434100    0.0039592544   -0.2305821530          0.6996
C223       C    0.0316400827    0.0011294907   -0.2453510184          0.7028
C224       C    0.0307973743   -0.0048239877   -0.2749899308         -0.2914
C225       C    0.0041252488    0.0123133463   -0.2004037949          0.6918
H226       H   -0.0422586965   -0.0011727654   -0.2314845005          0.7031
H227       H   -0.0437570197   -0.0121805090   -0.2827703649         -0.2864
H228       H    0.0524934513   -0.0059887440   -0.2862555304         -0.2898
Cl229     Cl    0.0665224185    0.0061507573   -0.2280574501          0.6988
C230       C    0.0010901958    0.0138932218   -0.1737943309          0.6898
C231       C   -0.0017439147    0.0077509587   -0.1412645928          0.6944
C232       C    0.0000000000    0.0000000000   -0.1156062426          0.7006
C185       C   -0.0000000000    0.0000000000    0.3843937574          -0.294
C186       C   -0.0120113065   -0.0225488239    0.3678953691         -0.2934
C187       C   -0.0142413793   -0.0199668024    0.3377934087         -0.2914
C188       C   -0.0047842470    0.0051193699    0.3231010788         -0.2896
C189       C    0.0079675902    0.0271522907    0.3400671040         -0.2909
C190       C    0.0104987842    0.0246794558    0.3700866430         -0.2931
C191       C   -0.0050284160    0.0068431311    0.2899225797         -0.2894
H192       H   -0.0233998807   -0.0395240828    0.3261584786         -0.2918
H193       H   -0.0197815669   -0.0433876592    0.3782097124          -0.295
H194       H    0.0216300901    0.0433174227    0.3811743507         -0.2946
H195       H    0.0173563087    0.0474304304    0.3301529038         -0.2907
C196       C   -0.0163251567   -0.0162963514    0.2732987083         -0.2897
C197       C   -0.0103745903   -0.0184601856    0.2439478597          0.7043
C198       C    0.0058193804    0.0032190895    0.2305821530          0.6996
C199       C    0.0141551971    0.0283196218    0.2453510184          0.7028
C200       C    0.0083886862    0.0300229756    0.2749899308         -0.2914
C201       C    0.0129150715   -0.0013553980    0.2004037949          0.6918
H202       H   -0.0186002479   -0.0379631873    0.2314845005          0.7031
H203       H   -0.0292374805   -0.0347593341    0.2827703649         -0.2864
H204       H    0.0163306440    0.0502467666    0.2862555304         -0.2898
Cl205     Cl    0.0331966054    0.0579745579    0.2280574501          0.6988
C206       C    0.0130932997   -0.0047723832    0.1737943309          0.6898
C207       C    0.0063287846   -0.0048026122    0.1412645928          0.6944
C208       C   -0.0000000000   -0.0000000000    0.1156062426          0.7006
loop_
_geom_bond_atom_site_label_1
_geom_bond_atom_site_label_2
_geom_bond_distance
_geom_bond_site_symmetry_2
_ccdc_geom_bond_type
Zn1          O5 1.942       .   S
Zn1          O6 1.922       .   S
Zn1         O10 1.922       .   S
Zn1         O17 1.922       .   S
Zn2          O5 1.942       .   S
Zn2          O7 1.922       .   S
Zn2          O9 1.922       .   S
Zn2         O13 1.922       .   S
Zn3          O5 1.942       .   S
Zn3          O8 1.922       .   S
Zn3         O11 1.922       .   S
Zn3         O14 1.922       .   S
Zn4          O5 1.942       .   S
Zn4         O12 1.922       .   S
Zn4         O15 1.922       .   S
Zn4         O16 1.922       .   S
O6          C18 1.304       .   A
O7          C19 1.304       .   A
O8          C20 1.304       .   A
O9          C18 1.304       .   A
O10         C20 1.304       .   A
O11         C19 1.304       .   A
O12         C21 1.304       .   A
O13         C22 1.304       .   A
O14         C21 1.304       .   A
O15         C22 1.304       .   A
O16         C23 1.304       .   A
O17         C23 1.304       .   A
C18        C280 1.540       .   S
C19        C304 1.540       .   S
C20        C208 1.540       .   S
C21        C233 1.540       .   S
C22        C232 1.540       .   S
C23        C305 1.540       .   S
Zn24        O28 1.942       .   S
Zn24        O29 1.922       .   S
Zn24        O33 1.922       .   S
Zn24        O40 1.922       .   S
Zn25        O28 1.942       .   S
Zn25        O30 1.922       .   S
Zn25        O32 1.922       .   S
Zn25        O36 1.922       .   S
Zn26        O28 1.942       .   S
Zn26        O31 1.922       .   S
Zn26        O34 1.922       .   S
Zn26        O37 1.922       .   S
Zn27        O28 1.942       .   S
Zn27        O35 1.922       .   S
Zn27        O38 1.922       .   S
Zn27        O39 1.922       .   S
O29         C41 1.304       .   A
O30         C42 1.304       .   A
O31         C43 1.304       .   A
O32         C41 1.304       .   A
O33         C43 1.304       .   A
O34         C42 1.304       .   A
O35         C44 1.304       .   A
O36         C45 1.304       .   A
O37         C44 1.304       .   A
O38         C45 1.304       .   A
O39         C46 1.304       .   A
O40         C46 1.304       .   A
C41        C185 1.540   1_655   S
C42        C352 1.540       .   S
C43        C377 1.540       .   S
C44        C209 1.540   1_656   S
C45        C401 1.540       .   S
C46        C376 1.540       .   S
Zn47        O51 1.942       .   S
Zn47        O52 1.922       .   S
Zn47        O56 1.922       .   S
Zn47        O63 1.922       .   S
Zn48        O51 1.942       .   S
Zn48        O53 1.922       .   S
Zn48        O55 1.922       .   S
Zn48        O59 1.922       .   S
Zn49        O51 1.942       .   S
Zn49        O54 1.922       .   S
Zn49        O57 1.922       .   S
Zn49        O60 1.922       .   S
Zn50        O51 1.942       .   S
Zn50        O58 1.922       .   S
Zn50        O61 1.922       .   S
Zn50        O62 1.922       .   S
O52         C64 1.304       .   A
O53         C65 1.304       .   A
O54         C66 1.304       .   A
O55         C64 1.304       .   A
O56         C66 1.304       .   A
O57         C65 1.304       .   A
O58         C67 1.304       .   A
O59         C68 1.304       .   A
O60         C67 1.304       .   A
O61         C68 1.304       .   A
O62         C69 1.304       .   A
O63         C69 1.304       .   A
C64        C281 1.540   1_655   S
C65        C448 1.540       .   S
C66        C473 1.540       .   S
C67        C328 1.540   1_665   S
C68        C520 1.540       .   S
C69        C472 1.540       .   S
Zn70        O74 1.942       .   S
Zn70        O75 1.922       .   S
Zn70        O79 1.922       .   S
Zn70        O86 1.922       .   S
Zn71        O74 1.942       .   S
Zn71        O76 1.922       .   S
Zn71        O78 1.922       .   S
Zn71        O82 1.922       .   S
Zn72        O74 1.942       .   S
Zn72        O77 1.922       .   S
Zn72        O80 1.922       .   S
Zn72        O83 1.922       .   S
Zn73        O74 1.942       .   S
Zn73        O81 1.922       .   S
Zn73        O84 1.922       .   S
Zn73        O85 1.922       .   S
O75         C87 1.304       .   A
O76         C88 1.304       .   A
O77         C89 1.304       .   A
O78         C87 1.304       .   A
O79         C89 1.304       .   A
O80         C88 1.304       .   A
O81         C90 1.304       .   A
O82         C91 1.304       .   A
O83         C90 1.304       .   A
O84         C91 1.304       .   A
O85         C92 1.304       .   A
O86         C92 1.304       .   A
C87        C449 1.540   1_556   S
C88        C521 1.540       .   S
C89        C400 1.540       .   S
C90        C425 1.540       .   S
C91        C424 1.540   1_565   S
C92        C545 1.540       .   S
Zn93        O97 1.942       .   S
Zn93        O98 1.922       .   S
Zn93       O102 1.922       .   S
Zn93       O109 1.922       .   S
Zn94        O97 1.942       .   S
Zn94        O99 1.922       .   S
Zn94       O101 1.922       .   S
Zn94       O105 1.922       .   S
Zn95        O97 1.942       .   S
Zn95       O100 1.922       .   S
Zn95       O103 1.922       .   S
Zn95       O106 1.922       .   S
Zn96        O97 1.942       .   S
Zn96       O104 1.922       .   S
Zn96       O107 1.922       .   S
Zn96       O108 1.922       .   S
O98        C110 1.304       .   A
O99        C111 1.304       .   A
O100       C112 1.304       .   A
O101       C110 1.304       .   A
O102       C112 1.304       .   A
O103       C111 1.304       .   A
O104       C113 1.304       .   A
O105       C114 1.304       .   A
O106       C113 1.304       .   A
O107       C114 1.304       .   A
O108       C115 1.304       .   A
O109       C115 1.304       .   A
C110       C256 1.540   1_565   S
C111       C569 1.540       .   S
C112       C664 1.540       .   S
C113       C257 1.540   1_665   S
C114       C640 1.540       .   S
C115       C593 1.540       .   S
Zn116      O120 1.942       .   S
Zn116      O121 1.922       .   S
Zn116      O125 1.922       .   S
Zn116      O132 1.922       .   S
Zn117      O120 1.942       .   S
Zn117      O122 1.922       .   S
Zn117      O124 1.922       .   S
Zn117      O128 1.922       .   S
Zn118      O120 1.942       .   S
Zn118      O123 1.922       .   S
Zn118      O126 1.922       .   S
Zn118      O129 1.922       .   S
Zn119      O120 1.942       .   S
Zn119      O127 1.922       .   S
Zn119      O130 1.922       .   S
Zn119      O131 1.922       .   S
O121       C133 1.304       .   A
O122       C134 1.304       .   A
O123       C135 1.304       .   A
O124       C133 1.304       .   A
O125       C135 1.304       .   A
O126       C134 1.304       .   A
O127       C136 1.304       .   A
O128       C137 1.304       .   A
O129       C136 1.304       .   A
O130       C137 1.304       .   A
O131       C138 1.304       .   A
O132       C138 1.304       .   A
C133       C329 1.540   1_465   S
C134       C592 1.540       .   S
C135       C665 1.540       .   S
C136       C353 1.540   1_565   S
C137       C689 1.540       .   S
C138       C616 1.540   1_556   S
Zn139      O143 1.942       .   S
Zn139      O144 1.922       .   S
Zn139      O148 1.922       .   S
Zn139      O155 1.922       .   S
Zn140      O143 1.942       .   S
Zn140      O145 1.922       .   S
Zn140      O147 1.922       .   S
Zn140      O151 1.922       .   S
Zn141      O143 1.942       .   S
Zn141      O146 1.922       .   S
Zn141      O149 1.922       .   S
Zn141      O152 1.922       .   S
Zn142      O143 1.942       .   S
Zn142      O150 1.922       .   S
Zn142      O153 1.922       .   S
Zn142      O154 1.922       .   S
O144       C156 1.304       .   A
O145       C157 1.304       .   A
O146       C158 1.304       .   A
O147       C156 1.304       .   A
O148       C158 1.304       .   A
O149       C157 1.304       .   A
O150       C159 1.304       .   A
O151       C160 1.304       .   A
O152       C159 1.304       .   A
O153       C160 1.304       .   A
O154       C161 1.304       .   A
O155       C161 1.304       .   A
C156       C496 1.540   1_455   S
C157       C617 1.540   1_545   S
C158       C760 1.540       .   S
C159       C497 1.540       .   S
C160       C736 1.540       .   S
C161       C641 1.540       .   S
Zn162      O166 1.942       .   S
Zn162      O167 1.922       .   S
Zn162      O171 1.922       .   S
Zn162      O178 1.922       .   S
Zn163      O166 1.942       .   S
Zn163      O168 1.922       .   S
Zn163      O170 1.922       .   S
Zn163      O174 1.922       .   S
Zn164      O166 1.942       .   S
Zn164      O169 1.922       .   S
Zn164      O172 1.922       .   S
Zn164      O175 1.922       .   S
Zn165      O166 1.942       .   S
Zn165      O173 1.922       .   S
Zn165      O176 1.922       .   S
Zn165      O177 1.922       .   S
O167       C179 1.304       .   A
O168       C180 1.304       .   A
O169       C181 1.304       .   A
O170       C179 1.304       .   A
O171       C181 1.304       .   A
O172       C180 1.304       .   A
O173       C182 1.304       .   A
O174       C183 1.304       .   A
O175       C182 1.304       .   A
O176       C183 1.304       .   A
O177       C184 1.304       .   A
O178       C184 1.304       .   A
C179       C544 1.540   1_455   S
C180       C688 1.540   1_545   S
C181       C713 1.540       .   S
C182       C568 1.540       .   S
C183       C737 1.540   1_556   S
C184       C712 1.540       .   S
C737       C738 0.026       .   A
C737       C742 0.026       .   A
C738       C739 0.026       .   A
C738       H745 0.021       .   A
C739       C740 0.026       .   A
C739       H744 0.021       .   A
C740       C741 0.026       .   A
C740       C743 0.029       .   A
C741       C742 0.026       .   A
C741       H747 0.021       .   A
C742       H746 0.021       .   A
C743       C748 0.026       .   A
C743       C752 0.026       .   A
C748       C749 0.026       .   A
C748       H755 0.021       .   A
C749       C750 0.026       .   A
C749       H754 0.021       .   A
C750       C751 0.026       .   A
C750       C753 0.027       .   A
C751       C752 0.026       .   A
C751      Cl757 0.034       .   A
C752       H756 0.021       .   A
C753       C758 0.023       .   A
C758       C759 0.029       .   A
C759       C760 0.023       .   A
C713       C714 0.026       .   A
C713       C718 0.026       .   A
C714       C715 0.026       .   A
C714       H721 0.021       .   A
C715       C716 0.026       .   A
C715       H720 0.021       .   A
C716       C717 0.026       .   A
C716       C719 0.029       .   A
C717       C718 0.026       .   A
C717       H723 0.021       .   A
C718       H722 0.021       .   A
C719       C724 0.026       .   A
C719       C728 0.026       .   A
C724       C725 0.026       .   A
C724       H731 0.021       .   A
C725       C726 0.026       .   A
C725       H730 0.021       .   A
C726       C727 0.026       .   A
C726       C729 0.027       .   A
C727       C728 0.026       .   A
C727      Cl733 0.034       .   A
C728       H732 0.021       .   A
C729       C734 0.023       .   A
C734       C735 0.029       .   A
C735       C736 0.023       .   A
C689       C690 0.026       .   A
C689       C694 0.026       .   A
C690       C691 0.026       .   A
C690       H697 0.021       .   A
C691       C692 0.026       .   A
C691       H696 0.021       .   A
C692       C693 0.026       .   A
C692       C695 0.029       .   A
C693       C694 0.026       .   A
C693       H699 0.021       .   A
C694       H698 0.021       .   A
C695       C700 0.026       .   A
C695       C704 0.026       .   A
C700       C701 0.026       .   A
C700       H707 0.021       .   A
C701       C702 0.026       .   A
C701       H706 0.021       .   A
C702       C703 0.026       .   A
C702       C705 0.027       .   A
C703       C704 0.026       .   A
C703      Cl709 0.034       .   A
C704       H708 0.021       .   A
C705       C710 0.023       .   A
C710       C711 0.029       .   A
C711       C712 0.023       .   A
C665       C666 0.026       .   A
C665       C670 0.026       .   A
C666       C667 0.026       .   A
C666       H673 0.021       .   A
C667       C668 0.026       .   A
C667       H672 0.021       .   A
C668       C669 0.026       .   A
C668       C671 0.029       .   A
C669       C670 0.026       .   A
C669       H675 0.021       .   A
C670       H674 0.021       .   A
C671       C676 0.026       .   A
C671       C680 0.026       .   A
C676       C677 0.026       .   A
C676       H683 0.021       .   A
C677       C678 0.026       .   A
C677       H682 0.021       .   A
C678       C679 0.026       .   A
C678       C681 0.027       .   A
C679       C680 0.026       .   A
C679      Cl685 0.034       .   A
C680       H684 0.021       .   A
C681       C686 0.023       .   A
C686       C687 0.029       .   A
C687       C688 0.023       .   A
C641       C642 0.026       .   A
C641       C646 0.026       .   A
C642       C643 0.026       .   A
C642       H649 0.021       .   A
C643       C644 0.026       .   A
C643       H648 0.021       .   A
C644       C645 0.026       .   A
C644       C647 0.029       .   A
C645       C646 0.026       .   A
C645       H651 0.021       .   A
C646       H650 0.021       .   A
C647       C652 0.026       .   A
C647       C656 0.026       .   A
C652       C653 0.026       .   A
C652       H659 0.021       .   A
C653       C654 0.026       .   A
C653       H658 0.021       .   A
C654       C655 0.026       .   A
C654       C657 0.027       .   A
C655       C656 0.026       .   A
C655      Cl661 0.034       .   A
C656       H660 0.021       .   A
C657       C662 0.023       .   A
C662       C663 0.029       .   A
C663       C664 0.023       .   A
C617       C618 0.026       .   A
C617       C622 0.026       .   A
C618       C619 0.026       .   A
C618       H625 0.021       .   A
C619       C620 0.026       .   A
C619       H624 0.021       .   A
C620       C621 0.026       .   A
C620       C623 0.029       .   A
C621       C622 0.026       .   A
C621       H627 0.021       .   A
C622       H626 0.021       .   A
C623       C628 0.026       .   A
C623       C632 0.026       .   A
C628       C629 0.026       .   A
C628       H635 0.021       .   A
C629       C630 0.026       .   A
C629       H634 0.021       .   A
C630       C631 0.026       .   A
C630       C633 0.027       .   A
C631       C632 0.026       .   A
C631      Cl637 0.034       .   A
C632       H636 0.021       .   A
C633       C638 0.023       .   A
C638       C639 0.029       .   A
C639       C640 0.023       .   A
C593       C594 0.026       .   A
C593       C598 0.026       .   A
C594       C595 0.026       .   A
C594       H601 0.021       .   A
C595       C596 0.026       .   A
C595       H600 0.021       .   A
C596       C597 0.026       .   A
C596       C599 0.029       .   A
C597       C598 0.026       .   A
C597       H603 0.021       .   A
C598       H602 0.021       .   A
C599       C604 0.026       .   A
C599       C608 0.026       .   A
C604       C605 0.026       .   A
C604       H611 0.021       .   A
C605       C606 0.026       .   A
C605       H610 0.021       .   A
C606       C607 0.026       .   A
C606       C609 0.027       .   A
C607       C608 0.026       .   A
C607      Cl613 0.034       .   A
C608       H612 0.021       .   A
C609       C614 0.023       .   A
C614       C615 0.029       .   A
C615       C616 0.023       .   A
C569       C570 0.026       .   A
C569       C574 0.026       .   A
C570       C571 0.026       .   A
C570       H577 0.021       .   A
C571       C572 0.026       .   A
C571       H576 0.021       .   A
C572       C573 0.026       .   A
C572       C575 0.029       .   A
C573       C574 0.026       .   A
C573       H579 0.021       .   A
C574       H578 0.021       .   A
C575       C580 0.026       .   A
C575       C584 0.026       .   A
C580       C581 0.026       .   A
C580       H587 0.021       .   A
C581       C582 0.026       .   A
C581       H586 0.021       .   A
C582       C583 0.026       .   A
C582       C585 0.027       .   A
C583       C584 0.026       .   A
C583      Cl589 0.034       .   A
C584       H588 0.021       .   A
C585       C590 0.023       .   A
C590       C591 0.029       .   A
C591       C592 0.023       .   A
C545       C546 0.026       .   A
C545       C550 0.026       .   A
C546       C547 0.026       .   A
C546       H553 0.021       .   A
C547       C548 0.026       .   A
C547       H552 0.021       .   A
C548       C549 0.026       .   A
C548       C551 0.029       .   A
C549       C550 0.026       .   A
C549       H555 0.021       .   A
C550       H554 0.021       .   A
C551       C556 0.026       .   A
C551       C560 0.026       .   A
C556       C557 0.026       .   A
C556       H563 0.021       .   A
C557       C558 0.026       .   A
C557       H562 0.021       .   A
C558       C559 0.026       .   A
C558       C561 0.027       .   A
C559       C560 0.026       .   A
C559      Cl565 0.034       .   A
C560       H564 0.021       .   A
C561       C566 0.023       .   A
C566       C567 0.029       .   A
C567       C568 0.023       .   A
C521       C522 0.026       .   A
C521       C526 0.026       .   A
C522       C523 0.026       .   A
C522       H529 0.021       .   A
C523       C524 0.026       .   A
C523       H528 0.021       .   A
C524       C525 0.026       .   A
C524       C527 0.029       .   A
C525       C526 0.026       .   A
C525       H531 0.021       .   A
C526       H530 0.021       .   A
C527       C532 0.026       .   A
C527       C536 0.026       .   A
C532       C533 0.026       .   A
C532       H539 0.021       .   A
C533       C534 0.026       .   A
C533       H538 0.021       .   A
C534       C535 0.026       .   A
C534       C537 0.027       .   A
C535       C536 0.026       .   A
C535      Cl541 0.034       .   A
C536       H540 0.021       .   A
C537       C542 0.023       .   A
C542       C543 0.029       .   A
C543       C544 0.023       .   A
C497       C498 0.026       .   A
C497       C502 0.026       .   A
C498       C499 0.026       .   A
C498       H505 0.021       .   A
C499       C500 0.026       .   A
C499       H504 0.021       .   A
C500       C501 0.026       .   A
C500       C503 0.029       .   A
C501       C502 0.026       .   A
C501       H507 0.021       .   A
C502       H506 0.021       .   A
C503       C508 0.026       .   A
C503       C512 0.026       .   A
C508       C509 0.026       .   A
C508       H515 0.021       .   A
C509       C510 0.026       .   A
C509       H514 0.021       .   A
C510       C511 0.026       .   A
C510       C513 0.027       .   A
C511       C512 0.026       .   A
C511      Cl517 0.034       .   A
C512       H516 0.021       .   A
C513       C518 0.023       .   A
C518       C519 0.029       .   A
C519       C520 0.023       .   A
C473       C474 0.026       .   A
C473       C478 0.026       .   A
C474       C475 0.026       .   A
C474       H481 0.021       .   A
C475       C476 0.026       .   A
C475       H480 0.021       .   A
C476       C477 0.026       .   A
C476       C479 0.029       .   A
C477       C478 0.026       .   A
C477       H483 0.021       .   A
C478       H482 0.021       .   A
C479       C484 0.026       .   A
C479       C488 0.026       .   A
C484       C485 0.026       .   A
C484       H491 0.021       .   A
C485       C486 0.026       .   A
C485       H490 0.021       .   A
C486       C487 0.026       .   A
C486       C489 0.027       .   A
C487       C488 0.026       .   A
C487      Cl493 0.034       .   A
C488       H492 0.021       .   A
C489       C494 0.023       .   A
C494       C495 0.029       .   A
C495       C496 0.023       .   A
C449       C450 0.026       .   A
C449       C454 0.026       .   A
C450       C451 0.026       .   A
C450       H457 0.021       .   A
C451       C452 0.026       .   A
C451       H456 0.021       .   A
C452       C453 0.026       .   A
C452       C455 0.029       .   A
C453       C454 0.026       .   A
C453       H459 0.021       .   A
C454       H458 0.021       .   A
C455       C460 0.026       .   A
C455       C464 0.026       .   A
C460       C461 0.026       .   A
C460       H467 0.021       .   A
C461       C462 0.026       .   A
C461       H466 0.021       .   A
C462       C463 0.026       .   A
C462       C465 0.027       .   A
C463       C464 0.026       .   A
C463      Cl469 0.034       .   A
C464       H468 0.021       .   A
C465       C470 0.023       .   A
C470       C471 0.029       .   A
C471       C472 0.023       .   A
C425       C426 0.026       .   A
C425       C430 0.026       .   A
C426       C427 0.026       .   A
C426       H433 0.021       .   A
C427       C428 0.026       .   A
C427       H432 0.021       .   A
C428       C429 0.026       .   A
C428       C431 0.029       .   A
C429       C430 0.026       .   A
C429       H435 0.021       .   A
C430       H434 0.021       .   A
C431       C436 0.026       .   A
C431       C440 0.026       .   A
C436       C437 0.026       .   A
C436       H443 0.021       .   A
C437       C438 0.026       .   A
C437       H442 0.021       .   A
C438       C439 0.026       .   A
C438       C441 0.027       .   A
C439       C440 0.026       .   A
C439      Cl445 0.034       .   A
C440       H444 0.021       .   A
C441       C446 0.023       .   A
C446       C447 0.029       .   A
C447       C448 0.023       .   A
C401       C402 0.026       .   A
C401       C406 0.026       .   A
C402       C403 0.026       .   A
C402       H409 0.021       .   A
C403       C404 0.026       .   A
C403       H408 0.021       .   A
C404       C405 0.026       .   A
C404       C407 0.029       .   A
C405       C406 0.026       .   A
C405       H411 0.021       .   A
C406       H410 0.021       .   A
C407       C412 0.026       .   A
C407       C416 0.026       .   A
C412       C413 0.026       .   A
C412       H419 0.021       .   A
C413       C414 0.026       .   A
C413       H418 0.021       .   A
C414       C415 0.026       .   A
C414       C417 0.027       .   A
C415       C416 0.026       .   A
C415      Cl421 0.034       .   A
C416       H420 0.021       .   A
C417       C422 0.023       .   A
C422       C423 0.029       .   A
C423       C424 0.023       .   A
C377       C378 0.026       .   A
C377       C382 0.026       .   A
C378       C379 0.026       .   A
C378       H385 0.021       .   A
C379       C380 0.026       .   A
C379       H384 0.021       .   A
C380       C381 0.026       .   A
C380       C383 0.029       .   A
C381       C382 0.026       .   A
C381       H387 0.021       .   A
C382       H386 0.021       .   A
C383       C388 0.026       .   A
C383       C392 0.026       .   A
C388       C389 0.026       .   A
C388       H395 0.021       .   A
C389       C390 0.026       .   A
C389       H394 0.021       .   A
C390       C391 0.026       .   A
C390       C393 0.027       .   A
C391       C392 0.026       .   A
C391      Cl397 0.034       .   A
C392       H396 0.021       .   A
C393       C398 0.023       .   A
C398       C399 0.029       .   A
C399       C400 0.023       .   A
C353       C354 0.026       .   A
C353       C358 0.026       .   A
C354       C355 0.026       .   A
C354       H361 0.021       .   A
C355       C356 0.026       .   A
C355       H360 0.021       .   A
C356       C357 0.026       .   A
C356       C359 0.029       .   A
C357       C358 0.026       .   A
C357       H363 0.021       .   A
C358       H362 0.021       .   A
C359       C364 0.026       .   A
C359       C368 0.026       .   A
C364       C365 0.026       .   A
C364       H371 0.021       .   A
C365       C366 0.026       .   A
C365       H370 0.021       .   A
C366       C367 0.026       .   A
C366       C369 0.027       .   A
C367       C368 0.026       .   A
C367      Cl373 0.034       .   A
C368       H372 0.021       .   A
C369       C374 0.023       .   A
C374       C375 0.029       .   A
C375       C376 0.023       .   A
C329       C330 0.026       .   A
C329       C334 0.026       .   A
C330       C331 0.026       .   A
C330       H337 0.021       .   A
C331       C332 0.026       .   A
C331       H336 0.021       .   A
C332       C333 0.026       .   A
C332       C335 0.029       .   A
C333       C334 0.026       .   A
C333       H339 0.021       .   A
C334       H338 0.021       .   A
C335       C340 0.026       .   A
C335       C344 0.026       .   A
C340       C341 0.026       .   A
C340       H347 0.021       .   A
C341       C342 0.026       .   A
C341       H346 0.021       .   A
C342       C343 0.026       .   A
C342       C345 0.027       .   A
C343       C344 0.026       .   A
C343      Cl349 0.034       .   A
C344       H348 0.021       .   A
C345       C350 0.023       .   A
C350       C351 0.029       .   A
C351       C352 0.023       .   A
C305       C306 0.026       .   A
C305       C310 0.026       .   A
C306       C307 0.026       .   A
C306       H313 0.021       .   A
C307       C308 0.026       .   A
C307       H312 0.021       .   A
C308       C309 0.026       .   A
C308       C311 0.029       .   A
C309       C310 0.026       .   A
C309       H315 0.021       .   A
C310       H314 0.021       .   A
C311       C316 0.026       .   A
C311       C320 0.026       .   A
C316       C317 0.026       .   A
C316       H323 0.021       .   A
C317       C318 0.026       .   A
C317       H322 0.021       .   A
C318       C319 0.026       .   A
C318       C321 0.027       .   A
C319       C320 0.026       .   A
C319      Cl325 0.034       .   A
C320       H324 0.021       .   A
C321       C326 0.023       .   A
C326       C327 0.029       .   A
C327       C328 0.023       .   A
C281       C282 0.026       .   A
C281       C286 0.026       .   A
C282       C283 0.026       .   A
C282       H289 0.021       .   A
C283       C284 0.026       .   A
C283       H288 0.021       .   A
C284       C285 0.026       .   A
C284       C287 0.029       .   A
C285       C286 0.026       .   A
C285       H291 0.021       .   A
C286       H290 0.021       .   A
C287       C292 0.026       .   A
C287       C296 0.026       .   A
C292       C293 0.026       .   A
C292       H299 0.021       .   A
C293       C294 0.026       .   A
C293       H298 0.021       .   A
C294       C295 0.026       .   A
C294       C297 0.027       .   A
C295       C296 0.026       .   A
C295      Cl301 0.034       .   A
C296       H300 0.021       .   A
C297       C302 0.023       .   A
C302       C303 0.029       .   A
C303       C304 0.023       .   A
C257       C258 0.026       .   A
C257       C262 0.026       .   A
C258       C259 0.026       .   A
C258       H265 0.021       .   A
C259       C260 0.026       .   A
C259       H264 0.021       .   A
C260       C261 0.026       .   A
C260       C263 0.029       .   A
C261       C262 0.026       .   A
C261       H267 0.021       .   A
C262       H266 0.021       .   A
C263       C268 0.026       .   A
C263       C272 0.026       .   A
C268       C269 0.026       .   A
C268       H275 0.021       .   A
C269       C270 0.026       .   A
C269       H274 0.021       .   A
C270       C271 0.026       .   A
C270       C273 0.027       .   A
C271       C272 0.026       .   A
C271      Cl277 0.034       .   A
C272       H276 0.021       .   A
C273       C278 0.023       .   A
C278       C279 0.029       .   A
C279       C280 0.023       .   A
C233       C234 0.026       .   A
C233       C238 0.026       .   A
C234       C235 0.026       .   A
C234       H241 0.021       .   A
C235       C236 0.026       .   A
C235       H240 0.021       .   A
C236       C237 0.026       .   A
C236       C239 0.029       .   A
C237       C238 0.026       .   A
C237       H243 0.021       .   A
C238       H242 0.021       .   A
C239       C244 0.026       .   A
C239       C248 0.026       .   A
C244       C245 0.026       .   A
C244       H251 0.021       .   A
C245       C246 0.026       .   A
C245       H250 0.021       .   A
C246       C247 0.026       .   A
C246       C249 0.027       .   A
C247       C248 0.026       .   A
C247      Cl253 0.034       .   A
C248       H252 0.021       .   A
C249       C254 0.023       .   A
C254       C255 0.029       .   A
C255       C256 0.023       .   A
C209       C210 0.026       .   A
C209       C214 0.026       .   A
C210       C211 0.026       .   A
C210       H217 0.021       .   A
C211       C212 0.026       .   A
C211       H216 0.021       .   A
C212       C213 0.026       .   A
C212       C215 0.029       .   A
C213       C214 0.026       .   A
C213       H219 0.021       .   A
C214       H218 0.021       .   A
C215       C220 0.026       .   A
C215       C224 0.026       .   A
C220       C221 0.026       .   A
C220       H227 0.021       .   A
C221       C222 0.026       .   A
C221       H226 0.021       .   A
C222       C223 0.026       .   A
C222       C225 0.027       .   A
C223       C224 0.026       .   A
C223      Cl229 0.034       .   A
C224       H228 0.021       .   A
C225       C230 0.023       .   A
C230       C231 0.029       .   A
C231       C232 0.023       .   A
C185       C186 0.026       .   A
C185       C190 0.026       .   A
C186       C187 0.026       .   A
C186       H193 0.021       .   A
C187       C188 0.026       .   A
C187       H192 0.021       .   A
C188       C189 0.026       .   A
C188       C191 0.029       .   A
C189       C190 0.026       .   A
C189       H195 0.021       .   A
C190       H194 0.021       .   A
C191       C196 0.026       .   A
C191       C200 0.026       .   A
C196       C197 0.026       .   A
C196       H203 0.021       .   A
C197       C198 0.026       .   A
C197       H202 0.021       .   A
C198       C199 0.026       .   A
C198       C201 0.027       .   A
C199       C200 0.026       .   A
C199      Cl205 0.034       .   A
C200       H204 0.021       .   A
C201       C206 0.023       .   A
C206       C207 0.029       .   A
C207       C208 0.023       .   A
