data_pcu_v1-6c_Zn_1_Ch_1-8_fer_tobacco
_audit_creation_date              2021-04-07
_audit_creation_method            'tobacco_3.0'
_symmetry_space_group_name_H-M    'P1'
_symmetry_Int_Tables_number       1
_symmetry_cell_setting            triclinic
loop_
_symmetry_equiv_pos_as_xyz
  x,y,z
_cell_length_a                    50.61488144615447
_cell_length_b                    50.61488144615447
_cell_length_c                    50.61488144615447
_cell_angle_alpha                 90.0
_cell_angle_beta                  90.0
_cell_angle_gamma                 90.0
loop_
_atom_site_label
_atom_site_type_symbol
_atom_site_fract_x
_atom_site_fract_y
_atom_site_fract_z
_atom_site_charge
Zn1       Zn   -0.0221515880   -0.0221515880    0.0221515880          1.4972
Zn2       Zn    0.0221515880    0.0221515880    0.0221515880          1.4936
Zn3       Zn    0.0221515880   -0.0221515880   -0.0221515880          1.4911
Zn4       Zn   -0.0221515880    0.0221515880   -0.0221515880          1.4948
O5         O    0.0000000000    0.0000000000    0.0000000000         -2.3897
O6         O   -0.0162797971   -0.0162797971    0.0592039320          -1.296
O7         O    0.0592039320    0.0162797971    0.0162797971         -1.2942
O8         O    0.0162797971   -0.0592039320   -0.0162797971         -1.2893
O9         O    0.0162797971    0.0162797971    0.0592039320         -1.2961
O10        O   -0.0162797971   -0.0592039320    0.0162797971         -1.2921
O11        O    0.0592039320   -0.0162797971   -0.0162797971          -1.298
O12        O   -0.0162797971    0.0162797971   -0.0592039320         -1.2919
O13        O    0.0162797971    0.0592039320    0.0162797971         -1.2994
O14        O    0.0162797971   -0.0162797971   -0.0592039320         -1.2933
O15        O   -0.0162797971    0.0592039320   -0.0162797971          -1.298
O16        O   -0.0592039320    0.0162797971   -0.0162797971         -1.2971
O17        O   -0.0592039320   -0.0162797971    0.0162797971          -1.295
C18        C   -0.0000000000   -0.0000000000    0.0707855061          0.2229
C19        C    0.0707855061   -0.0000000000   -0.0000000000          0.2278
C20        C   -0.0000000000   -0.0707855061    0.0000000000          0.2174
C21        C    0.0000000000    0.0000000000   -0.0707855061          0.2212
C22        C    0.0000000000    0.0707855061   -0.0000000000          0.2325
C23        C   -0.0707855061    0.0000000000    0.0000000000           0.223
Zn24      Zn    0.9778484120    0.0221515880    0.4778484120          1.4972
Zn25      Zn    1.0221515880   -0.0221515880    0.4778484120          1.4936
Zn26      Zn    1.0221515880    0.0221515880    0.5221515880          1.4911
Zn27      Zn    0.9778484120   -0.0221515880    0.5221515880          1.4948
O28        O    1.0000000000    0.0000000000    0.5000000000         -2.3897
O29        O    0.9837202029    0.0162797971    0.4407960680          -1.296
O30        O    1.0592039320   -0.0162797971    0.4837202029         -1.2942
O31        O    1.0162797971    0.0592039320    0.5162797971         -1.2893
O32        O    1.0162797971   -0.0162797971    0.4407960680         -1.2961
O33        O    0.9837202029    0.0592039320    0.4837202029         -1.2921
O34        O    1.0592039320    0.0162797971    0.5162797971          -1.298
O35        O    0.9837202029   -0.0162797971    0.5592039320         -1.2919
O36        O    1.0162797971   -0.0592039320    0.4837202029         -1.2994
O37        O    1.0162797971    0.0162797971    0.5592039320         -1.2933
O38        O    0.9837202029   -0.0592039320    0.5162797971          -1.298
O39        O    0.9407960680   -0.0162797971    0.5162797971         -1.2971
O40        O    0.9407960680    0.0162797971    0.4837202029          -1.295
C41        C    1.0000000000    0.0000000000    0.4292144939          0.2229
C42        C    1.0707855061    0.0000000000    0.5000000000          0.2278
C43        C    1.0000000000    0.0707855061    0.5000000000          0.2174
C44        C    1.0000000000    0.0000000000    0.5707855061          0.2212
C45        C    1.0000000000   -0.0707855061    0.5000000000          0.2325
C46        C    0.9292144939    0.0000000000    0.5000000000           0.223
Zn47      Zn    1.0221515880    0.4778484120   -0.0221515880          1.4972
Zn48      Zn    0.9778484120    0.4778484120    0.0221515880          1.4936
Zn49      Zn    1.0221515880    0.5221515880    0.0221515880          1.4911
Zn50      Zn    0.9778484120    0.5221515880   -0.0221515880          1.4948
O51        O    1.0000000000    0.5000000000    0.0000000000         -2.3897
O52        O    1.0162797971    0.4407960680   -0.0162797971          -1.296
O53        O    0.9837202029    0.4837202029    0.0592039320         -1.2942
O54        O    1.0592039320    0.5162797971    0.0162797971         -1.2893
O55        O    0.9837202029    0.4407960680    0.0162797971         -1.2961
O56        O    1.0592039320    0.4837202029   -0.0162797971         -1.2921
O57        O    1.0162797971    0.5162797971    0.0592039320          -1.298
O58        O    0.9837202029    0.5592039320   -0.0162797971         -1.2919
O59        O    0.9407960680    0.4837202029    0.0162797971         -1.2994
O60        O    1.0162797971    0.5592039320    0.0162797971         -1.2933
O61        O    0.9407960680    0.5162797971   -0.0162797971          -1.298
O62        O    0.9837202029    0.5162797971   -0.0592039320         -1.2971
O63        O    1.0162797971    0.4837202029   -0.0592039320          -1.295
C64        C    1.0000000000    0.4292144939    0.0000000000          0.2229
C65        C    1.0000000000    0.5000000000    0.0707855061          0.2278
C66        C    1.0707855061    0.5000000000    0.0000000000          0.2174
C67        C    1.0000000000    0.5707855061    0.0000000000          0.2212
C68        C    0.9292144939    0.5000000000    0.0000000000          0.2325
C69        C    1.0000000000    0.5000000000   -0.0707855061           0.223
Zn70      Zn    0.9778484120    0.4778484120    0.5221515880          1.4972
Zn71      Zn    1.0221515880    0.4778484120    0.4778484120          1.4936
Zn72      Zn    0.9778484120    0.5221515880    0.4778484120          1.4911
Zn73      Zn    1.0221515880    0.5221515880    0.5221515880          1.4948
O74        O    1.0000000000    0.5000000000    0.5000000000         -2.3897
O75        O    0.9837202029    0.4407960680    0.5162797971          -1.296
O76        O    1.0162797971    0.4837202029    0.4407960680         -1.2942
O77        O    0.9407960680    0.5162797971    0.4837202029         -1.2893
O78        O    1.0162797971    0.4407960680    0.4837202029         -1.2961
O79        O    0.9407960680    0.4837202029    0.5162797971         -1.2921
O80        O    0.9837202029    0.5162797971    0.4407960680          -1.298
O81        O    1.0162797971    0.5592039320    0.5162797971         -1.2919
O82        O    1.0592039320    0.4837202029    0.4837202029         -1.2994
O83        O    0.9837202029    0.5592039320    0.4837202029         -1.2933
O84        O    1.0592039320    0.5162797971    0.5162797971          -1.298
O85        O    1.0162797971    0.5162797971    0.5592039320         -1.2971
O86        O    0.9837202029    0.4837202029    0.5592039320          -1.295
C87        C    1.0000000000    0.4292144939    0.5000000000          0.2229
C88        C    1.0000000000    0.5000000000    0.4292144939          0.2278
C89        C    0.9292144939    0.5000000000    0.5000000000          0.2174
C90        C    1.0000000000    0.5707855061    0.5000000000          0.2212
C91        C    1.0707855061    0.5000000000    0.5000000000          0.2325
C92        C    1.0000000000    0.5000000000    0.5707855061           0.223
Zn93      Zn    0.4778484120    0.9778484120   -0.0221515880          1.4972
Zn94      Zn    0.4778484120    1.0221515880    0.0221515880          1.4936
Zn95      Zn    0.5221515880    0.9778484120    0.0221515880          1.4911
Zn96      Zn    0.5221515880    1.0221515880   -0.0221515880          1.4948
O97        O    0.5000000000    1.0000000000    0.0000000000         -2.3897
O98        O    0.4407960680    0.9837202029   -0.0162797971          -1.296
O99        O    0.4837202029    1.0162797971    0.0592039320         -1.2942
O100       O    0.5162797971    0.9407960680    0.0162797971         -1.2893
O101       O    0.4407960680    1.0162797971    0.0162797971         -1.2961
O102       O    0.4837202029    0.9407960680   -0.0162797971         -1.2921
O103       O    0.5162797971    0.9837202029    0.0592039320          -1.298
O104       O    0.5592039320    1.0162797971   -0.0162797971         -1.2919
O105       O    0.4837202029    1.0592039320    0.0162797971         -1.2994
O106       O    0.5592039320    0.9837202029    0.0162797971         -1.2933
O107       O    0.5162797971    1.0592039320   -0.0162797971          -1.298
O108       O    0.5162797971    1.0162797971   -0.0592039320         -1.2971
O109       O    0.4837202029    0.9837202029   -0.0592039320          -1.295
C110       C    0.4292144939    1.0000000000    0.0000000000          0.2229
C111       C    0.5000000000    1.0000000000    0.0707855061          0.2278
C112       C    0.5000000000    0.9292144939    0.0000000000          0.2174
C113       C    0.5707855061    1.0000000000    0.0000000000          0.2212
C114       C    0.5000000000    1.0707855061    0.0000000000          0.2325
C115       C    0.5000000000    1.0000000000   -0.0707855061           0.223
Zn116     Zn    0.4778484120    0.9778484120    0.4778484120          1.4972
Zn117     Zn    0.4778484120    1.0221515880    0.5221515880          1.4936
Zn118     Zn    0.5221515880    0.9778484120    0.5221515880          1.4911
Zn119     Zn    0.5221515880    1.0221515880    0.4778484120          1.4948
O120       O    0.5000000000    1.0000000000    0.5000000000         -2.3897
O121       O    0.4407960680    0.9837202029    0.4837202029          -1.296
O122       O    0.4837202029    1.0162797971    0.5592039320         -1.2942
O123       O    0.5162797971    0.9407960680    0.5162797971         -1.2893
O124       O    0.4407960680    1.0162797971    0.5162797971         -1.2961
O125       O    0.4837202029    0.9407960680    0.4837202029         -1.2921
O126       O    0.5162797971    0.9837202029    0.5592039320          -1.298
O127       O    0.5592039320    1.0162797971    0.4837202029         -1.2919
O128       O    0.4837202029    1.0592039320    0.5162797971         -1.2994
O129       O    0.5592039320    0.9837202029    0.5162797971         -1.2933
O130       O    0.5162797971    1.0592039320    0.4837202029          -1.298
O131       O    0.5162797971    1.0162797971    0.4407960680         -1.2971
O132       O    0.4837202029    0.9837202029    0.4407960680          -1.295
C133       C    0.4292144939    1.0000000000    0.5000000000          0.2229
C134       C    0.5000000000    1.0000000000    0.5707855061          0.2278
C135       C    0.5000000000    0.9292144939    0.5000000000          0.2174
C136       C    0.5707855061    1.0000000000    0.5000000000          0.2212
C137       C    0.5000000000    1.0707855061    0.5000000000          0.2325
C138       C    0.5000000000    1.0000000000    0.4292144939           0.223
Zn139     Zn    0.4778484120    0.4778484120   -0.0221515880          1.4972
Zn140     Zn    0.4778484120    0.5221515880    0.0221515880          1.4936
Zn141     Zn    0.5221515880    0.4778484120    0.0221515880          1.4911
Zn142     Zn    0.5221515880    0.5221515880   -0.0221515880          1.4948
O143       O    0.5000000000    0.5000000000    0.0000000000         -2.3897
O144       O    0.4407960680    0.4837202029   -0.0162797971          -1.296
O145       O    0.4837202029    0.5162797971    0.0592039320         -1.2942
O146       O    0.5162797971    0.4407960680    0.0162797971         -1.2893
O147       O    0.4407960680    0.5162797971    0.0162797971         -1.2961
O148       O    0.4837202029    0.4407960680   -0.0162797971         -1.2921
O149       O    0.5162797971    0.4837202029    0.0592039320          -1.298
O150       O    0.5592039320    0.5162797971   -0.0162797971         -1.2919
O151       O    0.4837202029    0.5592039320    0.0162797971         -1.2994
O152       O    0.5592039320    0.4837202029    0.0162797971         -1.2933
O153       O    0.5162797971    0.5592039320   -0.0162797971          -1.298
O154       O    0.5162797971    0.5162797971   -0.0592039320         -1.2971
O155       O    0.4837202029    0.4837202029   -0.0592039320          -1.295
C156       C    0.4292144939    0.5000000000    0.0000000000          0.2229
C157       C    0.5000000000    0.5000000000    0.0707855061          0.2278
C158       C    0.5000000000    0.4292144939    0.0000000000          0.2174
C159       C    0.5707855061    0.5000000000    0.0000000000          0.2212
C160       C    0.5000000000    0.5707855061    0.0000000000          0.2325
C161       C    0.5000000000    0.5000000000   -0.0707855061           0.223
Zn162     Zn    0.4778484120    0.4778484120    0.4778484120          1.4972
Zn163     Zn    0.4778484120    0.5221515880    0.5221515880          1.4936
Zn164     Zn    0.5221515880    0.4778484120    0.5221515880          1.4911
Zn165     Zn    0.5221515880    0.5221515880    0.4778484120          1.4948
O166       O    0.5000000000    0.5000000000    0.5000000000         -2.3897
O167       O    0.4407960680    0.4837202029    0.4837202029          -1.296
O168       O    0.4837202029    0.5162797971    0.5592039320         -1.2942
O169       O    0.5162797971    0.4407960680    0.5162797971         -1.2893
O170       O    0.4407960680    0.5162797971    0.5162797971         -1.2961
O171       O    0.4837202029    0.4407960680    0.4837202029         -1.2921
O172       O    0.5162797971    0.4837202029    0.5592039320          -1.298
O173       O    0.5592039320    0.5162797971    0.4837202029         -1.2919
O174       O    0.4837202029    0.5592039320    0.5162797971         -1.2994
O175       O    0.5592039320    0.4837202029    0.5162797971         -1.2933
O176       O    0.5162797971    0.5592039320    0.4837202029          -1.298
O177       O    0.5162797971    0.5162797971    0.4407960680         -1.2971
O178       O    0.4837202029    0.4837202029    0.4407960680          -1.295
C179       C    0.4292144939    0.5000000000    0.5000000000          0.2229
C180       C    0.5000000000    0.5000000000    0.5707855061          0.2278
C181       C    0.5000000000    0.4292144939    0.5000000000          0.2174
C182       C    0.5707855061    0.5000000000    0.5000000000          0.2212
C183       C    0.5000000000    0.5707855061    0.5000000000          0.2325
C184       C    0.5000000000    0.5000000000    0.4292144939           0.223
C1289      C    0.5000000000    0.5000000000   -0.3987886595          -0.551
C1290      C    0.4986071468    0.4767755487   -0.3863235090          0.4478
C1291      C    0.4976526418    0.4749947649   -0.3602299344          0.4469
C1292      C    0.4962749672    0.4958889063   -0.3437903867          0.4456
C1293      C    0.4947460151    0.5200304765   -0.3561784945          0.4444
C1294      C    0.4988157706    0.5217638326   -0.3831459561          0.4479
C1295      C    0.5035630936    0.4884238381   -0.3137567598         -0.5487
H1296      H    0.4988678223    0.4549021357   -0.3530489045          0.4478
H1297      H    0.4993230742    0.4581312163   -0.3970353878          0.4485
C1298      C    0.5018999081    0.5457081346   -0.3942574927         -0.5496
C1299      C    0.4893473530    0.5432012527   -0.3436988957            0.44
C1300      C    0.4917925207    0.5666640814   -0.3557097381           0.442
C1301      C    0.4991178597    0.5677625890   -0.3807131134          0.4481
Br1302    Br    0.4710043637    0.5456981111   -0.3112097335           0.425
C1303      C    0.5072509286    0.5993282229   -0.3264937891         -0.5458
H1304      H    0.5016322039    0.5866837469   -0.3906163385         -0.5499
H1305      H    0.5071898637    0.5486036265   -0.4146666826         -0.5452
O1306      O    0.4959042335    0.5017952737   -0.2885952559          0.4449
C1307      C    0.5012668363    0.4583933277   -0.2752209387         -0.5508
C1308      C    0.4985909305    0.4594151072   -0.3054396137          0.4473
C1309      C    0.5021275707    0.4929281833   -0.2363055136         -0.5504
H1310      H    0.5131604185    0.4461686685   -0.3143443328         -0.5409
H1311      H    0.5170411309    0.4448213430   -0.2694592686         -0.5381
H1312      H    0.4826559084    0.4516646479   -0.2666553421          0.4342
H1313      H    0.4787956626    0.4530627101   -0.3113242705          0.4314
H1314      H    0.5291008120    0.4893831771   -0.2689891899         -0.5284
C1315      C    0.5078000828    0.4867659433   -0.2664064598         -0.5456
H1316      H    0.5250809891    0.4905543297   -0.3138442763         -0.5314
C1317      C    0.5007845571    0.4734700640   -0.2182340134          0.4484
N1318      N    0.4990623815    0.4769085377   -0.1925977775          0.4469
C1319      C    0.4990104699    0.5004509214   -0.1812679814          0.4467
C1320      C    0.4999213580    0.5207947391   -0.1990239196          0.4476
C1321      C    0.5014385842    0.5171539146   -0.2255398820          -0.551
H1323      H    0.5020460400    0.4531149055   -0.2248094210         -0.5505
H1324      H    0.5029587253    0.5343634590   -0.2384136446         -0.5497
H1325      H    0.5000040302    0.5412094910   -0.1924240516          0.4476
N1326      N    0.4991389565    0.4831511430   -0.1432198985          0.4466
C1327      C    0.4998974044    0.4788096409   -0.1172680000          0.4471
C1328      C    0.5000000000    0.5000000000   -0.1012113405           0.447
C1329      C    0.4991602751    0.5223620290   -0.1158901952          0.4464
C1330      C    0.4984418511    0.5196289709   -0.1428678048           0.446
H1331      H    0.4974590000    0.5385480774   -0.1528801668          0.4453
H1332      H    0.4989250445    0.5419414534   -0.1070093174          0.4461
H1333      H    0.5003867561    0.4587847814   -0.1095496724          0.4474
H1334      H    0.5189253875    0.5827437898   -0.3189835985         -0.5364
H1335      H    0.5198796701    0.6125827107   -0.3379327655         -0.5356
H1336      H    0.4984314130    0.6099503382   -0.3099073018           0.447
O1337      O    0.4861387373    0.5897410195   -0.3431237898          0.4373
C1241      C    0.5000000000    0.5000000000    0.1012113405          -0.551
C1242      C    0.4767741726    0.5013697153    0.1136764910          0.4478
C1243      C    0.4749924388    0.5023224458    0.1397700656          0.4469
C1244      C    0.4958851973    0.5037209353    0.1562096133          0.4456
C1245      C    0.5200252323    0.5052739375    0.1438215055          0.4444
C1246      C    0.5217626420    0.5012059108    0.1168540439          0.4479
C1247      C    0.4884273935    0.4964253755    0.1862432402         -0.5487
H1248      H    0.4549010301    0.5010872487    0.1469510955          0.4478
H1249      H    0.4581305627    0.5006352140    0.1029646122          0.4485
C1250      C    0.5457100047    0.4981456292    0.1057425073         -0.5496
C1251      C    0.5431906187    0.5106956806    0.1563011043            0.44
C1252      C    0.5666558717    0.5082738888    0.1442902619           0.442
C1253      C    0.5677616765    0.5009496478    0.1192868866          0.4481
Br1254    Br    0.5456692018    0.5290411483    0.1887902665           0.425
C1255      C    0.5993353973    0.4928480300    0.1735062109         -0.5458
H1256      H    0.5866853300    0.4984541550    0.1093836615         -0.5499
H1257      H    0.5486107653    0.4928585608    0.0853333174         -0.5452
O1258      O    0.5017911924    0.5040975530    0.2114047441          0.4449
C1259      C    0.4583946104    0.4986917140    0.2247790613         -0.5508
C1260      C    0.4594137236    0.5013686364    0.1945603863          0.4473
C1261      C    0.4929303064    0.4978653851    0.2636944864         -0.5504
H1262      H    0.4461818061    0.4867859590    0.1856556672         -0.5409
H1263      H    0.4448383475    0.4829039063    0.2305407314         -0.5381
H1264      H    0.4516473930    0.5172959292    0.2333446579          0.4342
H1265      H    0.4530416087    0.5211575660    0.1886757295          0.4314
H1266      H    0.4894121738    0.4708886255    0.2310108101         -0.5284
C1267      C    0.4867737206    0.4921867367    0.2335935402         -0.5456
H1268      H    0.4905793211    0.4749096131    0.1861557237         -0.5314
C1269      C    0.4734708588    0.4991890130    0.2817659866          0.4484
N1270      N    0.4769076151    0.5009146134    0.3074022225          0.4469
C1271      C    0.5004499354    0.5009899788    0.3187320186          0.4467
C1272      C    0.5207946504    0.5000993586    0.3009760804          0.4476
C1273      C    0.5171553393    0.4985785060    0.2744601180          -0.551
H1275      H    0.4531169671    0.4979072521    0.2751905790         -0.5505
H1276      H    0.5343663895    0.4970755105    0.2615863554         -0.5497
H1277      H    0.5412094746    0.5000370244    0.3075759484          0.4476
N1278      N    0.4831502935    0.5008442576    0.3567801015          0.4466
C1279      C    0.4788095492    0.5000814848    0.3827320000          0.4471
C1280      C    0.5000000000    0.5000000000    0.3987886595           0.447
C1281      C    0.5223611814    0.5008620024    0.3841098048          0.4464
C1282      C    0.5196274089    0.5015777033    0.3571321952           0.446
H1283      H    0.5385455268    0.5025794020    0.3471198332          0.4453
H1284      H    0.5419403617    0.5011167388    0.3929906826          0.4461
H1285      H    0.4587851872    0.4995721837    0.3904503276          0.4474
H1286      H    0.5827626031    0.4811570548    0.1810164015         -0.5364
H1287      H    0.6126024598    0.4802324995    0.1620672345         -0.5356
H1288      H    0.6099487209    0.5016781234    0.1900926982           0.447
O1289      O    0.5897271658    0.5139506596    0.1568762102          0.4373
C1193      C    0.5000000000    0.8987886595    0.5000000000          -0.551
C1194      C    0.5057978516    0.8863235090    0.4774677987          0.4478
C1195      C    0.5054355705    0.8602299344    0.4754800807          0.4469
C1196      C    0.4977155063    0.8437903867    0.4949445030          0.4456
C1197      C    0.4888553825    0.8561784945    0.5174534194          0.4444
C1198      C    0.4921972987    0.8831459561    0.5203515272          0.4479
C1199      C    0.5069420649    0.8137567598    0.4900747345         -0.5487
H1200      H    0.5127551279    0.8530489045    0.4567286942          0.4478
H1201      H    0.5121979893    0.8970353878    0.4599417632          0.4485
C1202      C    0.4877884097    0.8942574927    0.5440876432         -0.5496
C1203      C    0.4766098469    0.8436988957    0.5378513919            0.44
C1204      C    0.4717404689    0.8557097381    0.5609332534           0.442
C1205      C    0.4783757667    0.8807131134    0.5642256893          0.4481
Br1206    Br    0.4583851810    0.8112097335    0.5346016058           0.425
C1207      C    0.4764347701    0.8264937891    0.5967644137         -0.5458
H1208      H    0.4749652836    0.8906163385    0.5830060181         -0.5499
H1209      H    0.4919352510    0.9146666826    0.5484661374         -0.5452
O1210      O    0.4955510007    0.7885952559    0.5004524550          0.4449
C1211      C    0.5139676607    0.7752209387    0.4607874445         -0.5508
C1212      C    0.5111073327    0.8054396137    0.4609391992          0.4473
C1213      C    0.5041941335    0.7363055136    0.4939216456         -0.5504
H1214      H    0.5290375758    0.8143443328    0.4528001265         -0.5409
H1215      H    0.5331444893    0.7694592686    0.4527080646         -0.5381
H1216      H    0.4983176929    0.7666553421    0.4486746299          0.4342
H1217      H    0.4942146970    0.8113242705    0.4488212605          0.4314
H1218      H    0.5309545474    0.7689891899    0.4988209383         -0.5284
C1219      C    0.5114833419    0.7664064598    0.4897963532         -0.5456
H1220      H    0.5267692657    0.8138442763    0.4987026503         -0.5314
C1221      C    0.5088841867    0.7182340134    0.4749895170          0.4484
N1222      N    0.5061903515    0.6925977775    0.4777340101          0.4469
C1223      C    0.4989198580    0.6812679814    0.5001256703          0.4467
C1224      C    0.4935468411    0.6990239196    0.5197682599          0.4476
C1225      C    0.4961076724    0.7255398820    0.5167683063          -0.551
H1227      H    0.5163283394    0.7248094210    0.4560024580         -0.5505
H1228      H    0.4922759074    0.7384136446    0.5336145766         -0.5497
H1229      H    0.4873637732    0.6924240516    0.5392243284          0.4476
N1230      N    0.5043484599    0.6432198985    0.4836991940          0.4466
C1231      C    0.5064020047    0.6172680000    0.4797995995          0.4471
C1232      C    0.5000000000    0.6012113405    0.5000000000           0.447
C1233      C    0.4923417143    0.6158901952    0.5210265580          0.4464
C1234      C    0.4924962228    0.6428678048    0.5182048799           0.446
H1235      H    0.4857577470    0.6528801668    0.5359105720          0.4453
H1236      H    0.4861122846    0.6070093174    0.5395900544          0.4461
H1237      H    0.5130099331    0.6095496724    0.4608900848          0.4474
H1238      H    0.4926333844    0.8189835985    0.5845602627         -0.5364
H1239      H    0.4843892661    0.8379327655    0.6132535784         -0.5356
H1240      H    0.4647822875    0.8099073018    0.6041693335           0.447
O1241      O    0.4592808922    0.8431237898    0.5811636584          0.4373
C1145      C    0.5000000000    1.1012113405    0.5000000000          -0.551
C1146      C    0.5215657640    1.1136764910    0.4912688488          0.4478
C1147      C    0.5235839537    1.1397700656    0.4913646658          0.4469
C1148      C    0.5053135370    1.1562096133    0.5015947684          0.4456
C1149      C    0.4841764494    1.1438215055    0.5133581283          0.4444
C1150      C    0.4808612392    1.1168540439    0.5104295083          0.4479
C1151      C    0.5089183480    1.1862432402    0.4918044994         -0.5487
H1152      H    0.5412006636    1.1469510955    0.4816259827          0.4478
H1153      H    0.5380896953    1.1029646122    0.4826037823          0.4485
C1154      C    0.4579181998    1.1057425073    0.5179433919         -0.5496
C1155      C    0.4655801039    1.1563011043    0.5281974800            0.44
C1156      C    0.4433465464    1.1442902619    0.5360811399           0.442
C1157      C    0.4392042754    1.1192868866    0.5299403825          0.4481
Br1158    Br    0.4712151075    1.1887902665    0.5458311493           0.425
C1159      C    0.4072093095    1.1735062109    0.5361740181         -0.5458
H1160      H    0.4210411230    1.1093836615    0.5358082646         -0.5499
H1161      H    0.4530290340    1.0853333174    0.5144130150         -0.5452
O1162      O    0.5001407993    1.2114047441    0.5044697300          0.4449
C1163      C    0.5370170725    1.2247790613    0.4809617123         -0.5508
C1164      C    0.5372455039    1.1945603863    0.4838169399          0.4473
C1165      C    0.5054692914    1.2636944864    0.4950377425         -0.5504
H1166      H    0.5429380166    1.1856556672    0.4649666502         -0.5409
H1167      H    0.5424853085    1.2305407314    0.4608837261         -0.5381
H1168      H    0.5510960014    1.2333446579    0.4948694629          0.4342
H1169      H    0.5514941027    1.1886757295    0.4989557316          0.4314
H1170      H    0.4970687578    1.2310108101    0.4691620038         -0.5284
C1171      C    0.5085927865    1.2335935402    0.4872663607         -0.5456
H1172      H    0.4977403423    1.1861557237    0.4732947449         -0.5314
C1173      C    0.5236134277    1.2817659866    0.4878814578          0.4484
N1174      N    0.5212499116    1.3074022225    0.4909150665          0.4469
C1175      C    0.5000185012    1.3187320186    0.5010872707          0.4467
C1176      C    0.4812606215    1.3009760804    0.5090146022          0.4476
C1177      C    0.4838949638    1.2744601180    0.5060789899          -0.551
H1179      H    0.5414472312    1.2751905790    0.4779880624         -0.5505
H1180      H    0.4677046289    1.2615863554    0.5121082772         -0.5497
H1181      H    0.4627949105    1.3075759484    0.5177201434          0.4476
N1182      N    0.5155812401    1.3567801015    0.4935308165          0.4466
C1183      C    0.5191744872    1.3827320000    0.4909788645          0.4471
C1184      C    0.5000000000    1.3987886595    0.5000000000           0.447
C1185      C    0.4801730279    1.3841098048    0.5103757726          0.4464
C1186      C    0.4829493816    1.3571321952    0.5098488954           0.446
H1187      H    0.4662921893    1.3471198332    0.5188731145          0.4453
H1188      H    0.4625981658    1.3929906826    0.5190090463          0.4461
H1189      H    0.5370421871    1.3904503276    0.4819245967          0.4474
H1190      H    0.4171604396    1.1810164015    0.5185016833         -0.5364
H1191      H    0.3898118491    1.1620672345    0.5304735858         -0.5356
H1192      H    0.4014129951    1.1900926982    0.5487046177           0.447
O1193      O    0.4249446418    1.1568762102    0.5511104528          0.4373
C1097      C    0.5000000000    0.6012113405    0.0000000000          -0.551
C1098      C    0.4882821467    0.6136764910   -0.0200999276          0.4478
C1099      C    0.4880891252    0.6397700656   -0.0221111495          0.4469
C1100      C    0.5008205819    0.6562096133   -0.0054866754          0.4456
C1101      C    0.5154784989    0.6438215055    0.0137564683          0.4444
C1102      C    0.5130526773    0.6168540439    0.0174554983          0.4479
C1103      C    0.4906162489    0.6862432402   -0.0076582227         -0.5487
H1104      H    0.4759373034    0.6469510955   -0.0381586926          0.4478
H1105      H    0.4773488299    0.6029646122   -0.0352189972          0.4485
C1106      C    0.5237621525    0.6057425073    0.0390922413         -0.5496
C1107      C    0.5328185665    0.6563011043    0.0300461116            0.44
C1108      C    0.5437928423    0.6442902619    0.0509278846           0.442
C1109      C    0.5383056904    0.6192868866    0.0559036735          0.4481
Br1110    Br    0.5494682123    0.6887902665    0.0219535933           0.425
C1111      C    0.5490391030    0.6735062109    0.0866823984         -0.5458
H1112      H    0.5467042276    0.6093836615    0.0730441729         -0.5499
H1113      H    0.5209652233    0.5853333174    0.0444349645         -0.5452
O1114      O    0.5044039479    0.7114047441   -0.0007768869          0.4449
C1115      C    0.4758765392    0.7247790613   -0.0339231292         -0.5508
C1116      C    0.4786699926    0.6945603863   -0.0345564724          0.4473
C1117      C    0.4943083809    0.7636944864   -0.0047055946         -0.5504
H1118      H    0.4592004973    0.6856556672   -0.0375021260         -0.5409
H1119      H    0.4552238887    0.7305407314   -0.0364716902         -0.5381
H1120      H    0.4876339858    0.7333446579   -0.0498418044          0.4342
H1121      H    0.4916216934    0.6886757295   -0.0508186687          0.4314
H1122      H    0.4698953881    0.7310108101    0.0072997625         -0.5284
C1123      C    0.4861709447    0.7335935402   -0.0066887054         -0.5456
H1124      H    0.4738900855    0.6861557237    0.0060455826         -0.5314
C1125      C    0.4846373264    0.7817659866   -0.0216435047          0.4484
N1126      N    0.4879770322    0.8074022225   -0.0197368439          0.4469
C1127      C    0.5010735153    0.8187320186   -0.0001733918          0.4467
C1128      C    0.5115952728    0.8009760804    0.0172620105          0.4476
C1129      C    0.5083139330    0.7744601180    0.0150733151          -0.551
H1131      H    0.4723014096    0.7751905790   -0.0378838548         -0.5505
H1132      H    0.5165908378    0.7615863554    0.0302381459         -0.5497
H1133      H    0.5228456107    0.8075759484    0.0342972336          0.4476
N1134      N    0.4913745731    0.8567801015   -0.0144992203          0.4466
C1135      C    0.4883362002    0.8827320000   -0.0176917387          0.4471
C1136      C    0.5000000000    0.8987886595    0.0000000000           0.447
C1137      C    0.5130976521    0.8841098048    0.0181443377          0.4464
C1138      C    0.5121801645    0.8571321952    0.0154715196           0.446
H1139      H    0.5234879692    0.8471198332    0.0306712611          0.4453
H1140      H    0.5241493977    0.8929906826    0.0343081278          0.4461
H1141      H    0.4768259968    0.8904503276   -0.0340853253          0.4474
H1142      H    0.5301281031    0.6810164015    0.0793536543         -0.5364
H1143      H    0.5458783906    0.6620672345    0.1047150481         -0.5356
H1144      H    0.5622683277    0.6900926982    0.0906321835           0.447
O1145      O    0.5612931954    0.6568762102    0.0669979805          0.4373
C1049      C    0.5000000000    1.1012113405    0.0000000000          -0.551
C1050      C    0.5210854947    1.1136764910    0.0098344849          0.4478
C1051      C    0.5223905840    1.1397700656    0.0113768896          0.4469
C1052      C    0.5024534939    1.1562096133    0.0049756737          0.4456
C1053      C    0.4794408293    1.1438215055   -0.0024788806          0.4444
C1054      C    0.4793252651    1.1168540439   -0.0069008799          0.4479
C1055      C    0.5120753561    1.1862432402    0.0009428339         -0.5487
H1056      H    0.5415225605    1.1469510955    0.0176345161          0.4478
H1057      H    0.5386870587    1.1029646122    0.0160238810          0.4485
C1058      C    0.4581921977    1.1057425073   -0.0185728535         -0.5496
C1059      C    0.4559081362    1.1563011043   -0.0059778481            0.44
C1060      C    0.4349878785    1.1442902619   -0.0168785818           0.442
C1061      C    0.4366597102    1.1192868866   -0.0240946950          0.4481
Br1062    Br    0.4468418023    1.1887902665    0.0101621998           0.425
C1063      C    0.4102955695    1.1735062109   -0.0432641533         -0.5458
H1064      H    0.4199884224    1.1093836615   -0.0333898715         -0.5499
H1065      H    0.4574445479    1.0853333174   -0.0245568759         -0.5452
O1066      O    0.4968245449    1.2114047441    0.0031487768          0.4449
C1067      C    0.5391579929    1.2247790613    0.0141199024         -0.5508
C1068      C    0.5372239064    1.1945603863    0.0162326766          0.4473
C1069      C    0.5073587170    1.2636944864    0.0006216371         -0.5504
H1070      H    0.5548993859    1.1856556672    0.0075542236         -0.5409
H1071      H    0.5575791994    1.2305407314    0.0044407346         -0.5381
H1072      H    0.5385724491    1.2333446579    0.0339011790          0.4342
H1073      H    0.5358529781    1.1886757295    0.0369769803          0.4314
H1074      H    0.5205729609    1.2310108101   -0.0231587450         -0.5284
C1075      C    0.5151749805    1.2335935402   -0.0023877849         -0.5456
H1076      H    0.5180058313    1.1861557237   -0.0198511144         -0.5314
C1077      C    0.5249600294    1.2817659866    0.0090249634          0.4484
N1078      N    0.5211292026    1.3074022225    0.0093622410          0.4469
C1079      C    0.4992168330    1.3187320186    0.0007544199          0.4467
C1080      C    0.4806329792    1.3009760804   -0.0075727053          0.4476
C1081      C    0.4845766265    1.2744601180   -0.0076449891          -0.551
H1083      H    0.5443531700    1.2751905790    0.0153360581         -0.5505
H1084      H    0.4691315069    1.2615863554   -0.0153862764         -0.5497
H1085      H    0.4616786405    1.3075759484   -0.0151557109          0.4476
N1086      N    0.5153520356    1.3567801015    0.0069957402          0.4466
C1087      C    0.5196682906    1.3827320000    0.0078867096          0.4471
C1088      C    0.5000000000    1.3987886595    0.0000000000           0.447
C1089      C    0.4788956391    1.3841098048   -0.0074411983          0.4464
C1090      C    0.4811731004    1.3571321952   -0.0057682039           0.446
H1091      H    0.4632178667    1.3471198332   -0.0118104031          0.4453
H1092      H    0.4606012277    1.3929906826   -0.0144214351          0.4461
H1093      H    0.5384703707    1.3904503276    0.0147944043          0.4474
H1094      H    0.4300107745    1.1810164015   -0.0480230503         -0.5364
H1095      H    0.4026128875    1.1620672345   -0.0598817030         -0.5356
H1096      H    0.3971747422    1.1900926982   -0.0389679829           0.447
O1097      O    0.4114486469    1.1568762102   -0.0201057963          0.4373
C1001      C    0.5000000000    1.0000000000   -0.1012113405          -0.551
C1002      C    0.5013883196    0.9767752772   -0.1136764910          0.4478
C1003      C    0.5023424770    0.9749943072   -0.1397700656          0.4469
C1004      C    0.5037242302    0.9958881792   -0.1562096133          0.4456
C1005      C    0.5052578949    1.0200294505   -0.1438215055          0.4444
C1006      C    0.5011884778    1.0217636010   -0.1168540439          0.4479
C1007      C    0.4964346467    0.9884245339   -0.1862432402         -0.5487
H1008      H    0.5011233742    0.9549019155   -0.1469510955          0.4478
H1009      H    0.5006687527    0.9581310850   -0.1029646122          0.4485
C1010      C    0.4981090145    1.0457085046   -0.1057425073         -0.5496
C1011      C    0.5106610800    1.0431991724   -0.1563011043            0.44
C1012      C    0.5082204925    1.0666624780   -0.1442902619           0.442
C1013      C    0.5008953680    1.0677624155   -0.1192868866          0.4481
Br1014    Br    0.5290045563    1.0456924501   -0.1887902665           0.425
C1015      C    0.4927684611    1.0993296364   -0.1735062109         -0.5458
H1016      H    0.4983847174    1.0866840639   -0.1093836615         -0.5499
H1017      H    0.4928196242    1.0486050291   -0.0853333174         -0.5452
O1018      O    0.5040961168    1.0017944741   -0.2114047441          0.4449
C1019      C    0.4987250418    0.9583935758   -0.2247790613         -0.5508
C1020      C    0.5014011470    0.9594148329   -0.1945603863          0.4473
C1021      C    0.4978710489    0.9929285988   -0.2636944864         -0.5504
H1022      H    0.4868290735    0.9461712385   -0.1856556672         -0.5409
H1023      H    0.4829480982    0.9448246706   -0.2305407314         -0.5381
H1024      H    0.5173346558    0.9516612632   -0.2333446579          0.4342
H1025      H    0.5211951745    0.9530585717   -0.1886757295          0.4314
H1026      H    0.4708971160    0.9893888580   -0.2310108101         -0.5284
C1027      C    0.4921973339    0.9867674661   -0.2335935402         -0.5456
H1028      H    0.4749171675    0.9905592258   -0.1861557237         -0.5314
C1029      C    0.4992102641    0.9734702177   -0.2817659866          0.4484
N1030      N    0.5009331109    0.9769083551   -0.3074022225          0.4469
C1031      C    0.5009896181    1.0004507282   -0.3187320186          0.4467
C1032      C    0.5000827013    1.0207947234   -0.3009760804          0.4476
C1033      C    0.4985647644    1.0171541951   -0.2744601180          -0.551
H1035      H    0.4979448077    0.9531153058   -0.2751905790         -0.5505
H1036      H    0.4970479827    1.0343640359   -0.2615863554         -0.5497
H1037      H    0.5000040141    1.0412094910   -0.3075759484          0.4476
N1038      N    0.5008577545    0.9831509752   -0.3567801015          0.4466
C1039      C    0.5000984591    0.9788096213   -0.3827320000          0.4471
C1040      C    0.5000000000    1.0000000000   -0.3987886595           0.447
C1041      C    0.5008440901    1.0223618647   -0.3841098048          0.4464
C1042      C    0.5015619806    1.0196286664   -0.3571321952           0.446
H1043      H    0.5025485248    1.0385475807   -0.3471198332          0.4453
H1044      H    0.5010831427    1.0419412428   -0.3929906826          0.4461
H1045      H    0.4996051984    0.9587848577   -0.3904503276          0.4474
H1046      H    0.4810907650    1.0827474826   -0.1810164015         -0.5364
H1047      H    0.4801423073    1.1125865892   -0.1620672345         -0.5356
H1048      H    0.5015900500    1.1099500299   -0.1900926982           0.447
O1049      O    0.5138787805    1.0897383120   -0.1568762102          0.4373
C953       C    0.5000000000    1.0000000000    0.1012113405          -0.551
C954       C    0.4767741726    1.0013697153    0.1136764910          0.4478
C955       C    0.4749924388    1.0023224458    0.1397700656          0.4469
C956       C    0.4958851973    1.0037209353    0.1562096133          0.4456
C957       C    0.5200252323    1.0052739375    0.1438215055          0.4444
C958       C    0.5217626420    1.0012059108    0.1168540439          0.4479
C959       C    0.4884273935    0.9964253755    0.1862432402         -0.5487
H960       H    0.4549010301    1.0010872487    0.1469510955          0.4478
H961       H    0.4581305627    1.0006352140    0.1029646122          0.4485
C962       C    0.5457100047    0.9981456292    0.1057425073         -0.5496
C963       C    0.5431906187    1.0106956806    0.1563011043            0.44
C964       C    0.5666558717    1.0082738888    0.1442902619           0.442
C965       C    0.5677616765    1.0009496478    0.1192868866          0.4481
Br966     Br    0.5456692018    1.0290411483    0.1887902665           0.425
C967       C    0.5993353973    0.9928480300    0.1735062109         -0.5458
H968       H    0.5866853300    0.9984541550    0.1093836615         -0.5499
H969       H    0.5486107653    0.9928585608    0.0853333174         -0.5452
O970       O    0.5017911924    1.0040975530    0.2114047441          0.4449
C971       C    0.4583946104    0.9986917140    0.2247790613         -0.5508
C972       C    0.4594137236    1.0013686364    0.1945603863          0.4473
C973       C    0.4929303064    0.9978653851    0.2636944864         -0.5504
H974       H    0.4461818061    0.9867859590    0.1856556672         -0.5409
H975       H    0.4448383475    0.9829039063    0.2305407314         -0.5381
H976       H    0.4516473930    1.0172959292    0.2333446579          0.4342
H977       H    0.4530416087    1.0211575660    0.1886757295          0.4314
H978       H    0.4894121738    0.9708886255    0.2310108101         -0.5284
C979       C    0.4867737206    0.9921867367    0.2335935402         -0.5456
H980       H    0.4905793211    0.9749096131    0.1861557237         -0.5314
C981       C    0.4734708588    0.9991890130    0.2817659866          0.4484
N982       N    0.4769076151    1.0009146134    0.3074022225          0.4469
C983       C    0.5004499354    1.0009899788    0.3187320186          0.4467
C984       C    0.5207946504    1.0000993586    0.3009760804          0.4476
C985       C    0.5171553393    0.9985785060    0.2744601180          -0.551
H987       H    0.4531169671    0.9979072521    0.2751905790         -0.5505
H988       H    0.5343663895    0.9970755105    0.2615863554         -0.5497
H989       H    0.5412094746    1.0000370244    0.3075759484          0.4476
N990       N    0.4831502935    1.0008442576    0.3567801015          0.4466
C991       C    0.4788095492    1.0000814848    0.3827320000          0.4471
C992       C    0.5000000000    1.0000000000    0.3987886595           0.447
C993       C    0.5223611814    1.0008620024    0.3841098048          0.4464
C994       C    0.5196274089    1.0015777033    0.3571321952           0.446
H995       H    0.5385455268    1.0025794020    0.3471198332          0.4453
H996       H    0.5419403617    1.0011167388    0.3929906826          0.4461
H997       H    0.4587851872    0.9995721837    0.3904503276          0.4474
H998       H    0.5827626031    0.9811570548    0.1810164015         -0.5364
H999       H    0.6126024598    0.9802324995    0.1620672345         -0.5356
H1000      H    0.6099487209    1.0016781234    0.1900926982           0.447
O1001      O    0.5897271658    1.0139506596    0.1568762102          0.4373
C905       C    0.6012113405    0.5000000000    0.5000000000          -0.551
C906       C    0.6136764910    0.5154057806    0.4825650609          0.4478
C907       C    0.6397700656    0.5159865508    0.4806298667          0.4469
C908       C    0.6562096133    0.5002629699    0.4944585374          0.4456
C909       C    0.6438215055    0.4821401020    0.5104808583          0.4444
C910       C    0.6168540439    0.4837996007    0.5145812849          0.4479
C911       C    0.6862432402    0.5106948106    0.4943145637         -0.5487
H912       H    0.6469510955    0.5310292942    0.4672542813          0.4478
H913       H    0.6029646122    0.5290726135    0.4698630390          0.4485
C914       C    0.6057425073    0.4690838080    0.5337199095         -0.5496
C915       C    0.6563011043    0.4619612074    0.5230841370            0.44
C916       C    0.6442902619    0.4471326160    0.5414306913           0.442
C917       C    0.6192868866    0.4515464108    0.5473792816          0.4481
Br918     Br    0.6887902665    0.4472049797    0.5119058857           0.425
C919       C    0.6735062109    0.4350278541    0.5754804086         -0.5458
H920       H    0.6093836615    0.4399724588    0.5625574165         -0.5499
H921       H    0.5853333174    0.4707874093    0.5395048250         -0.5452
O922       O    0.7114047441    0.4958314720    0.4983808384          0.4449
C923       C    0.7247790613    0.5302645377    0.4714206751         -0.5508
C924       C    0.6945603863    0.5276477693    0.4702557594          0.4473
C925       C    0.7636944864    0.5064986190    0.4964921374         -0.5504
H926       H    0.6856556672    0.5473182588    0.4711557413         -0.5409
H927       H    0.7305407314    0.5510182718    0.4729404311         -0.5381
H928       H    0.7333446579    0.5218301448    0.4535180836          0.4342
H929       H    0.6886757295    0.5181088185    0.4517837807          0.4314
H930       H    0.7310108101    0.5281081889    0.5130193665         -0.5284
C931       C    0.7335935402    0.5148664129    0.4961307211         -0.5456
H932       H    0.6861557237    0.5244339798    0.5110116907         -0.5314
C933       C    0.7817659866    0.5192813246    0.4817603850          0.4484
N934       N    0.8074022225    0.5156343942    0.4829805853          0.4469
C935       C    0.8187320186    0.4989807602    0.4996209879          0.4467
C936       C    0.8009760804    0.4852667936    0.5146751486          0.4476
C937       C    0.7744601180    0.4889113659    0.5131669474          -0.551
H939       H    0.7751905790    0.5345421683    0.4682315097         -0.5505
H940       H    0.7615863554    0.4778412405    0.5264308673         -0.5497
H941       H    0.8075759484    0.4709160650    0.5291949806          0.4476
N942       N    0.8567801015    0.5112824365    0.4874567944          0.4466
C943       C    0.8827320000    0.5148840601    0.4849166781          0.4471
C944       C    0.8987886595    0.5000000000    0.5000000000           0.447
C945       C    0.8841098048    0.4836214186    0.5152481983          0.4464
C946       C    0.8571321952    0.4850415661    0.5128050608           0.446
H947       H    0.8471198332    0.4709917056    0.5255133261          0.4453
H948       H    0.8929906826    0.4696350898    0.5289519132          0.4461
H949       H    0.8904503276    0.5293648044    0.4710767898          0.4474
H950       H    0.6810164015    0.4550035998    0.5719724184         -0.5364
H951       H    0.6620672345    0.4346184687    0.5937833855         -0.5356
H952       H    0.6900926982    0.4212828716    0.5767798869           0.447
O953       O    0.6568762102    0.4268392311    0.5537874249          0.4373
C857       C    1.1012113405    0.5000000000    0.5000000000          -0.551
C858       C    1.1136764910    0.4844037491    0.5172647658          0.4478
C859       C    1.1397700656    0.4838017697    0.5191934677          0.4469
C860       C    1.1562096133    0.4996762125    0.5055382418          0.4456
C861       C    1.1438215055    0.5179738793    0.4897158370          0.4444
C862       C    1.1168540439    0.5163594947    0.4855974398          0.4479
C863       C    1.1862432402    0.4892434198    0.5055676874         -0.5487
H864       H    1.1469510955    0.4686130971    0.5324031097          0.4478
H865       H    1.1029646122    0.4705982985    0.5298159894          0.4485
C866       C    1.1057425073    0.5312845020    0.4666215166         -0.5496
C867       C    1.1563011043    0.5382899153    0.4773348392            0.44
C868       C    1.1442902619    0.5533190192    0.4591521769           0.442
C869       C    1.1192868866    0.5489707934    0.4531554909          0.4481
Br870     Br    1.1887902665    0.5529225403    0.4886744089           0.425
C871       C    1.1735062109    0.5657968453    0.4252373959         -0.5458
H872       H    1.1093836615    0.5607106716    0.4381053280         -0.5499
H873       H    1.0853333174    0.5296445095    0.4608182478         -0.5452
O874       O    1.2114047441    0.5041505019    0.5016648256          0.4449
C875       C    1.2247790613    0.4694235457    0.5282453624         -0.5508
C876       C    1.1945603863    0.4720273681    0.5294389345          0.4473
C877       C    1.2636944864    0.4934632638    0.5034363102         -0.5504
H878       H    1.1856556672    0.4523679439    0.5283230666         -0.5409
H879       H    1.2305407314    0.4486877459    0.5264978660         -0.5381
H880       H    1.2333446579    0.4776608980    0.5462394668          0.4342
H881       H    1.1886757295    0.4813629611    0.5480145175          0.4314
H882       H    1.2310108101    0.4720364298    0.4866728498         -0.5284
C883       C    1.2335935402    0.4850920065    0.5037058441         -0.5456
H884       H    1.1861557237    0.4756883775    0.4887207396         -0.5314
C885       C    1.2817659866    0.4805196050    0.5180268479          0.4484
N886       N    1.3074022225    0.4841797109    0.5168467567          0.4469
C887       C    1.3187320186    0.5010150176    0.5003901783          0.4467
C888       C    1.3009760804    0.5148934206    0.4854874750          0.4476
C889       C    1.2744601180    0.5112325110    0.4869555756          -0.551
H891       H    1.2751905790    0.4651111626    0.5313873763         -0.5505
H892       H    1.2615863554    0.5224475790    0.4738139815         -0.5497
H893       H    1.3075759484    0.5294026813    0.4711260585          0.4476
N894       N    1.3567801015    0.4885805456    0.5124185925          0.4466
C895       C    1.3827320000    0.4849512540    0.5149190177          0.4471
C896       C    1.3987886595    0.5000000000    0.5000000000           0.447
C897       C    1.3841098048    0.5165449873    0.4849325226          0.4464
C898       C    1.3571321952    0.5150981049    0.4873599227           0.446
H899       H    1.3471198332    0.5292866286    0.4748066608          0.4453
H900       H    1.3929906826    0.5306809109    0.4713831737          0.4461
H901       H    1.3904503276    0.4703194497    0.5285991041          0.4474
H902       H    1.1810164015    0.5457837931    0.4285258834         -0.5364
H903       H    1.1620672345    0.5664071339    0.4069400161         -0.5356
H904       H    1.1900926982    0.5795552651    0.4240888867           0.447
O905       O    1.1568762102    0.5737468320    0.4470189661          0.4373
C809       C    0.6012113405    0.5000000000    0.0000000000          -0.551
C810       C    0.6136764910    0.5225930352   -0.0055560723          0.4478
C811       C    0.6397700656    0.5241726114   -0.0068159175          0.4469
C812       C    0.6562096133    0.5033723543   -0.0044050185          0.4456
C813       C    0.6438215055    0.4793505873   -0.0015575950          0.4444
C814       C    0.6168540439    0.4783791623    0.0027579312          0.4479
C815       C    0.6862432402    0.5120287907    0.0014182228         -0.5487
H816       H    0.6469510955    0.5441551950   -0.0092421827          0.4478
H817       H    0.6029646122    0.5410610553   -0.0082123697          0.4485
C818       C    0.6057425073    0.4553829071    0.0101073361         -0.5496
C819       C    0.6563011043    0.4555862291   -0.0026914825            0.44
C820       C    0.6442902619    0.4329483923    0.0039426355           0.442
C821       C    0.6192868866    0.4331882126    0.0113459994          0.4481
Br822     Br    0.6887902665    0.4498240791   -0.0202840146           0.425
C823       C    0.6735062109    0.4036054776    0.0250353325         -0.5458
H824       H    0.6093836615    0.4150301327    0.0172295592         -0.5499
H825       H    0.5853333174    0.4534883113    0.0158325444         -0.5452
O826       O    0.7114047441    0.4974958981   -0.0037051025          0.4449
C827       C    0.7247790613    0.5411535851   -0.0062531984         -0.5508
C828       C    0.6945603863    0.5396662283   -0.0087011109          0.4473
C829       C    0.7636944864    0.5073394745    0.0008180846         -0.5504
H830       H    0.6856556672    0.5553217594    0.0032421913         -0.5409
H831       H    0.7305407314    0.5573464876    0.0068165010         -0.5381
H832       H    0.7333446579    0.5444175856   -0.0257721141          0.4342
H833       H    0.6886757295    0.5423466406   -0.0293171476          0.4314
H834       H    0.7310108101    0.5156881434    0.0267106037         -0.5284
C835       C    0.7335935402    0.5144232180    0.0052869966         -0.5456
H836       H    0.6861557237    0.5138116291    0.0229677079         -0.5314
C837       C    0.7817659866    0.5262368450   -0.0040101117          0.4484
N838       N    0.8074022225    0.5225442768   -0.0050843232          0.4469
C839       C    0.8187320186    0.4993781084   -0.0008920486          0.4467
C840       C    0.8009760804    0.4795316579    0.0036707398          0.4476
C841       C    0.7744601180    0.4833863223    0.0045068862          -0.551
H843       H    0.7751905790    0.5464860040   -0.0064381519         -0.5505
H844       H    0.7615863554    0.4667326259    0.0091040205         -0.5497
H845       H    0.8075759484    0.4594661553    0.0074316621          0.4476
N846       N    0.8567801015    0.5164177136   -0.0038838201          0.4466
C847       C    0.8827320000    0.5208248160   -0.0039203166          0.4471
C848       C    0.8987886595    0.5000000000    0.0000000000           0.447
C849       C    0.8841098048    0.4778528573    0.0032046139          0.4464
C850       C    0.8571321952    0.4804116635    0.0020053431           0.446
H851       H    0.8471198332    0.4616252585    0.0044486142          0.4453
H852       H    0.8929906826    0.4585517018    0.0065022784          0.4461
H853       H    0.8904503276    0.5406099147   -0.0070483083          0.4474
H854       H    0.6810164015    0.4220225270    0.0335293716         -0.5364
H855       H    0.6620672345    0.3928443036    0.0398462640         -0.5356
H856       H    0.6900926982    0.3915676782    0.0182748167           0.447
O857       O    0.6568762102    0.4092303517    0.0025408914          0.4373
C761       C    1.1012113405    0.5000000000    0.0000000000          -0.551
C762       C    1.1136764910    0.5051664560   -0.0226853016          0.4478
C763       C    1.1397700656    0.5047488158   -0.0246621292          0.4469
C764       C    1.1562096133    0.4975752394   -0.0049897392          0.4456
C765       C    1.1438215055    0.4893470550    0.0177577901          0.4444
C766       C    1.1168540439    0.4927685881    0.0205614564          0.4479
C767       C    1.1862432402    0.5066622290   -0.0101152294         -0.5487
H768       H    1.1469510955    0.5115419507   -0.0436105786          0.4478
H769       H    1.1029646122    0.5110747434   -0.0403832061          0.4485
C770       C    1.1057425073    0.4890241684    0.0444114213         -0.5496
C771       C    1.1563011043    0.4776758378    0.0384897247            0.44
C772       C    1.1442902619    0.4734528408    0.0616985478           0.442
C773       C    1.1192868866    0.4801774817    0.0648044320          0.4481
Br774     Br    1.1887902665    0.4593675382    0.0357500676           0.425
C775       C    1.1735062109    0.4791457751    0.0973846658         -0.5458
H776       H    1.1093836615    0.4772927051    0.0836726648         -0.5499
H777       H    1.0853333174    0.4932916474    0.0486724219         -0.5452
O778       O    1.2114047441    0.4955653686    0.0005765017          0.4449
C779       C    1.2247790613    0.5128673376   -0.0395872666         -0.5508
C780       C    1.1945603863    0.5100123621   -0.0393557061          0.4473
C781       C    1.2636944864    0.5040227809   -0.0061930915         -0.5504
H782       H    1.1856556672    0.5277083585   -0.0479922467         -0.5409
H783       H    1.2305407314    0.5318111003   -0.0481989442         -0.5381
H784       H    1.2333446579    0.4968852623   -0.0512583865          0.4342
H785       H    1.1886757295    0.4927879603   -0.0509972509          0.4314
H786       H    1.2310108101    0.5309095574   -0.0020429025         -0.5284
C787       C    1.2335935402    0.5111939626   -0.0105203019         -0.5456
H788       H    1.1861557237    0.5267226047   -0.0020442846         -0.5314
C789       C    1.2817659866    0.5081823902   -0.0252487925          0.4484
N790       N    1.3074022225    0.5055662359   -0.0224301533          0.4469
C791       C    1.3187320186    0.4989237880    0.0001557806          0.4467
C792       C    1.3009760804    0.4941013186    0.0199407351          0.4476
C793       C    1.2744601180    0.4965773879    0.0168704486          -0.551
H795       H    1.2751905790    0.5150934914   -0.0444363014         -0.5505
H796       H    1.2615863554    0.4932174917    0.0338171399         -0.5497
H797       H    1.3075759484    0.4884639059    0.0395618591          0.4476
N798       N    1.3567801015    0.5038916200   -0.0164158665          0.4466
C799       C    1.3827320000    0.5058354811   -0.0203712789          0.4471
C800       C    1.3987886595    0.5000000000    0.0000000000           0.447
C801       C    1.3841098048    0.4929317953    0.0212321917          0.4464
C802       C    1.3571321952    0.4930074577    0.0184072996           0.446
H803       H    1.3471198332    0.4867659805    0.0362942376          0.4453
H804       H    1.3929906826    0.4872231169    0.0399623861          0.4461
H805       H    1.3904503276    0.5119128493   -0.0394579250          0.4474
H806       H    1.1810164015    0.4949973144    0.0847329817         -0.5364
H807       H    1.1620672345    0.4875575736    0.1136452993         -0.5356
H808       H    1.1900926982    0.4677045928    0.1051120545           0.447
O809       O    1.1568762102    0.4615629872    0.0822689567          0.4373
C713       C    1.0000000000    0.5000000000   -0.1012113405          -0.551
C714       C    1.0232258274    0.5013697153   -0.1136764910          0.4478
C715       C    1.0250075612    0.5023224458   -0.1397700656          0.4469
C716       C    1.0041148027    0.5037209353   -0.1562096133          0.4456
C717       C    0.9799747677    0.5052739375   -0.1438215055          0.4444
C718       C    0.9782373580    0.5012059108   -0.1168540439          0.4479
C719       C    1.0115726065    0.4964253755   -0.1862432402         -0.5487
H720       H    1.0450989699    0.5010872487   -0.1469510955          0.4478
H721       H    1.0418694373    0.5006352140   -0.1029646122          0.4485
C722       C    0.9542899953    0.4981456292   -0.1057425073         -0.5496
C723       C    0.9568093813    0.5106956806   -0.1563011043            0.44
C724       C    0.9333441283    0.5082738888   -0.1442902619           0.442
C725       C    0.9322383235    0.5009496478   -0.1192868866          0.4481
Br726     Br    0.9543307982    0.5290411483   -0.1887902665           0.425
C727       C    0.9006646027    0.4928480300   -0.1735062109         -0.5458
H728       H    0.9133146700    0.4984541550   -0.1093836615         -0.5499
H729       H    0.9513892347    0.4928585608   -0.0853333174         -0.5452
O730       O    0.9982088076    0.5040975530   -0.2114047441          0.4449
C731       C    1.0416053896    0.4986917140   -0.2247790613         -0.5508
C732       C    1.0405862764    0.5013686364   -0.1945603863          0.4473
C733       C    1.0070696936    0.4978653851   -0.2636944864         -0.5504
H734       H    1.0538181939    0.4867859590   -0.1856556672         -0.5409
H735       H    1.0551616525    0.4829039063   -0.2305407314         -0.5381
H736       H    1.0483526070    0.5172959292   -0.2333446579          0.4342
H737       H    1.0469583913    0.5211575660   -0.1886757295          0.4314
H738       H    1.0105878262    0.4708886255   -0.2310108101         -0.5284
C739       C    1.0132262794    0.4921867367   -0.2335935402         -0.5456
H740       H    1.0094206789    0.4749096131   -0.1861557237         -0.5314
C741       C    1.0265291412    0.4991890130   -0.2817659866          0.4484
N742       N    1.0230923849    0.5009146134   -0.3074022225          0.4469
C743       C    0.9995500646    0.5009899788   -0.3187320186          0.4467
C744       C    0.9792053496    0.5000993586   -0.3009760804          0.4476
C745       C    0.9828446607    0.4985785060   -0.2744601180          -0.551
H747       H    1.0468830329    0.4979072521   -0.2751905790         -0.5505
H748       H    0.9656336105    0.4970755105   -0.2615863554         -0.5497
H749       H    0.9587905254    0.5000370244   -0.3075759484          0.4476
N750       N    1.0168497065    0.5008442576   -0.3567801015          0.4466
C751       C    1.0211904508    0.5000814848   -0.3827320000          0.4471
C752       C    1.0000000000    0.5000000000   -0.3987886595           0.447
C753       C    0.9776388186    0.5008620024   -0.3841098048          0.4464
C754       C    0.9803725911    0.5015777033   -0.3571321952           0.446
H755       H    0.9614544732    0.5025794020   -0.3471198332          0.4453
H756       H    0.9580596383    0.5011167388   -0.3929906826          0.4461
H757       H    1.0412148128    0.4995721837   -0.3904503276          0.4474
H758       H    0.9172373969    0.4811570548   -0.1810164015         -0.5364
H759       H    0.8873975402    0.4802324995   -0.1620672345         -0.5356
H760       H    0.8900512791    0.5016781234   -0.1900926982           0.447
O761       O    0.9102728342    0.5139506596   -0.1568762102          0.4373
C665       C    1.0000000000    0.5000000000    0.1012113405          -0.551
C666       C    0.9767741726    0.5013697153    0.1136764910          0.4478
C667       C    0.9749924388    0.5023224458    0.1397700656          0.4469
C668       C    0.9958851973    0.5037209353    0.1562096133          0.4456
C669       C    1.0200252323    0.5052739375    0.1438215055          0.4444
C670       C    1.0217626420    0.5012059108    0.1168540439          0.4479
C671       C    0.9884273935    0.4964253755    0.1862432402         -0.5487
H672       H    0.9549010301    0.5010872487    0.1469510955          0.4478
H673       H    0.9581305627    0.5006352140    0.1029646122          0.4485
C674       C    1.0457100047    0.4981456292    0.1057425073         -0.5496
C675       C    1.0431906187    0.5106956806    0.1563011043            0.44
C676       C    1.0666558717    0.5082738888    0.1442902619           0.442
C677       C    1.0677616765    0.5009496478    0.1192868866          0.4481
Br678     Br    1.0456692018    0.5290411483    0.1887902665           0.425
C679       C    1.0993353973    0.4928480300    0.1735062109         -0.5458
H680       H    1.0866853300    0.4984541550    0.1093836615         -0.5499
H681       H    1.0486107653    0.4928585608    0.0853333174         -0.5452
O682       O    1.0017911924    0.5040975530    0.2114047441          0.4449
C683       C    0.9583946104    0.4986917140    0.2247790613         -0.5508
C684       C    0.9594137236    0.5013686364    0.1945603863          0.4473
C685       C    0.9929303064    0.4978653851    0.2636944864         -0.5504
H686       H    0.9461818061    0.4867859590    0.1856556672         -0.5409
H687       H    0.9448383475    0.4829039063    0.2305407314         -0.5381
H688       H    0.9516473930    0.5172959292    0.2333446579          0.4342
H689       H    0.9530416087    0.5211575660    0.1886757295          0.4314
H690       H    0.9894121738    0.4708886255    0.2310108101         -0.5284
C691       C    0.9867737206    0.4921867367    0.2335935402         -0.5456
H692       H    0.9905793211    0.4749096131    0.1861557237         -0.5314
C693       C    0.9734708588    0.4991890130    0.2817659866          0.4484
N694       N    0.9769076151    0.5009146134    0.3074022225          0.4469
C695       C    1.0004499354    0.5009899788    0.3187320186          0.4467
C696       C    1.0207946504    0.5000993586    0.3009760804          0.4476
C697       C    1.0171553393    0.4985785060    0.2744601180          -0.551
H699       H    0.9531169671    0.4979072521    0.2751905790         -0.5505
H700       H    1.0343663895    0.4970755105    0.2615863554         -0.5497
H701       H    1.0412094746    0.5000370244    0.3075759484          0.4476
N702       N    0.9831502935    0.5008442576    0.3567801015          0.4466
C703       C    0.9788095492    0.5000814848    0.3827320000          0.4471
C704       C    1.0000000000    0.5000000000    0.3987886595           0.447
C705       C    1.0223611814    0.5008620024    0.3841098048          0.4464
C706       C    1.0196274089    0.5015777033    0.3571321952           0.446
H707       H    1.0385455268    0.5025794020    0.3471198332          0.4453
H708       H    1.0419403617    0.5011167388    0.3929906826          0.4461
H709       H    0.9587851872    0.4995721837    0.3904503276          0.4474
H710       H    1.0827626031    0.4811570548    0.1810164015         -0.5364
H711       H    1.1126024598    0.4802324995    0.1620672345         -0.5356
H712       H    1.1099487209    0.5016781234    0.1900926982           0.447
O713       O    1.0897271658    0.5139506596    0.1568762102          0.4373
C617       C    1.0000000000   -0.3987886595    0.5000000000          -0.551
C618       C    1.0015047455   -0.3863235090    0.5232174701          0.4478
C619       C    1.0007789941   -0.3602299344    0.5251030882          0.4469
C620       C    0.9968148644   -0.3437903867    0.5045422321          0.4456
C621       C    0.9922969754   -0.3561784945    0.4807779356          0.4444
C622       C    0.9961197128   -0.3831459561    0.4785521521          0.4479
C623       C    1.0049743763   -0.3137567598    0.5110434931         -0.5487
H624       H    1.0044822621   -0.3530489045    0.5448888463          0.4478
H625       H    1.0045326089   -0.3970353878    0.5416282204          0.4485
C626       C    0.9962036579   -0.3942574927    0.4544101875         -0.5496
C627       C    0.9840600568   -0.3436988957    0.4584579089            0.44
C628       C    0.9835698345   -0.3557097381    0.4348731075           0.442
C629       C    0.9907018190   -0.3807131134    0.4328725804          0.4481
Br630     Br    0.9655489637   -0.3112097335    0.4582604458           0.425
C631       C    0.9948482088   -0.3264937891    0.4005408080         -0.5458
H632       H    0.9908447659   -0.3906163385    0.4137856291         -0.5499
H633       H    1.0010926790   -0.4146666826    0.4508796101         -0.5452
O634       O    0.9957128451   -0.2885952559    0.4987277525          0.4449
C635       C    1.0064287162   -0.2752209387    0.5411265323         -0.5508
C636       C    1.0036465557   -0.3054396137    0.5404452918          0.4473
C637       C    1.0029900967   -0.2363055136    0.5067525158         -0.5504
H638       H    1.0197495838   -0.3143443328    0.5517780147         -0.5409
H639       H    1.0237676724   -0.2694592686    0.5526325192         -0.5381
H640       H    0.9887984958   -0.2666553421    0.5501163654          0.4342
H641       H    0.9847944084   -0.3113242705    0.5492089737          0.4314
H642       H    1.0301947963   -0.2689891899    0.5069172587         -0.5284
C643       C    1.0093845826   -0.2664064598    0.5121618732         -0.5456
H644       H    1.0260605742   -0.3138442763    0.5062548522         -0.5314
C645       C    1.0040761406   -0.2182340134    0.5262266679          0.4484
N646       N    1.0019399191   -0.1925977775    0.5230289269          0.4469
C647       C    0.9989620946   -0.1812679814    0.4996755741          0.4467
C648       C    0.9973371842   -0.1990239196    0.4793763056          0.4476
C649       C    0.9992951979   -0.2255398820    0.4828003034          -0.551
H651       H    1.0078579842   -0.2248094210    0.5462671639         -0.5505
H652       H    0.9986644055   -0.2384136446    0.4655352709         -0.5497
H653       H    0.9948816640   -0.1924240516    0.4591096001          0.4476
N654       N    1.0012399451   -0.1432198985    0.5168252166          0.4466
C655       C    1.0025321593   -0.1172680000    0.5210387741          0.4471
C656       C    1.0000000000   -0.1012113405    0.5000000000           0.447
C657       C    0.9963871898   -0.1158901952    0.4779157730          0.4464
C658       C    0.9960140562   -0.1428678048    0.4807169355           0.446
H659       H    0.9926871846   -0.1528801668    0.4620667206          0.4453
H660       H    0.9937200633   -0.1070093174    0.4585174321          0.4461
H661       H    1.0055068036   -0.1095496724    0.5408475084          0.4474
H662       H    1.0084935718   -0.3189835985    0.4155454898         -0.5364
H663       H    1.0057314792   -0.3379327655    0.3858193616         -0.5356
H664       H    0.9847767635   -0.3099073018    0.3910973352           0.447
O665       O    0.9750914372   -0.3431237898    0.4126779027          0.4373
C569       C    1.0000000000    0.3987886595    0.5000000000          -0.551
C570       C    1.0015047455    0.3863235090    0.4767825299          0.4478
C571       C    1.0007789941    0.3602299344    0.4748969118          0.4469
C572       C    0.9968148644    0.3437903867    0.4954577679          0.4456
C573       C    0.9922969754    0.3561784945    0.5192220644          0.4444
C574       C    0.9961197128    0.3831459561    0.5214478479          0.4479
C575       C    1.0049743763    0.3137567598    0.4889565069         -0.5487
H576       H    1.0044822621    0.3530489045    0.4551111537          0.4478
H577       H    1.0045326089    0.3970353878    0.4583717796          0.4485
C578       C    0.9962036579    0.3942574927    0.5455898125         -0.5496
C579       C    0.9840600568    0.3436988957    0.5415420911            0.44
C580       C    0.9835698345    0.3557097381    0.5651268925           0.442
C581       C    0.9907018190    0.3807131134    0.5671274196          0.4481
Br582     Br    0.9655489637    0.3112097335    0.5417395542           0.425
C583       C    0.9948482088    0.3264937891    0.5994591920         -0.5458
H584       H    0.9908447659    0.3906163385    0.5862143709         -0.5499
H585       H    1.0010926790    0.4146666826    0.5491203899         -0.5452
O586       O    0.9957128451    0.2885952559    0.5012722475          0.4449
C587       C    1.0064287162    0.2752209387    0.4588734677         -0.5508
C588       C    1.0036465557    0.3054396137    0.4595547082          0.4473
C589       C    1.0029900967    0.2363055136    0.4932474842         -0.5504
H590       H    1.0197495838    0.3143443328    0.4482219853         -0.5409
H591       H    1.0237676724    0.2694592686    0.4473674808         -0.5381
H592       H    0.9887984958    0.2666553421    0.4498836346          0.4342
H593       H    0.9847944084    0.3113242705    0.4507910263          0.4314
H594       H    1.0301947963    0.2689891899    0.4930827413         -0.5284
C595       C    1.0093845826    0.2664064598    0.4878381268         -0.5456
H596       H    1.0260605742    0.3138442763    0.4937451478         -0.5314
C597       C    1.0040761406    0.2182340134    0.4737733321          0.4484
N598       N    1.0019399191    0.1925977775    0.4769710731          0.4469
C599       C    0.9989620946    0.1812679814    0.5003244259          0.4467
C600       C    0.9973371842    0.1990239196    0.5206236944          0.4476
C601       C    0.9992951979    0.2255398820    0.5171996966          -0.551
H603       H    1.0078579842    0.2248094210    0.4537328361         -0.5505
H604       H    0.9986644055    0.2384136446    0.5344647291         -0.5497
H605       H    0.9948816640    0.1924240516    0.5408903999          0.4476
N606       N    1.0012399451    0.1432198985    0.4831747834          0.4466
C607       C    1.0025321593    0.1172680000    0.4789612259          0.4471
C608       C    1.0000000000    0.1012113405    0.5000000000           0.447
C609       C    0.9963871898    0.1158901952    0.5220842270          0.4464
C610       C    0.9960140562    0.1428678048    0.5192830645           0.446
H611       H    0.9926871846    0.1528801668    0.5379332794          0.4453
H612       H    0.9937200633    0.1070093174    0.5414825679          0.4461
H613       H    1.0055068036    0.1095496724    0.4591524916          0.4474
H614       H    1.0084935718    0.3189835985    0.5844545102         -0.5364
H615       H    1.0057314792    0.3379327655    0.6141806384         -0.5356
H616       H    0.9847767635    0.3099073018    0.6089026648           0.447
O617       O    0.9750914372    0.3431237898    0.5873220973          0.4373
C521       C    0.6012113405   -0.0000000000    0.5000000000          -0.551
C522       C    0.6136764910    0.0033616330    0.4769779540          0.4478
C523       C    0.6397700656    0.0027894202    0.4750402122          0.4469
C524       C    0.6562096133   -0.0028106522    0.4952169889          0.4456
C525       C    0.6438215055   -0.0092195743    0.5185424863          0.4444
C526       C    0.6168540439   -0.0055876249    0.5210676352          0.4479
C527       C    0.6862432402    0.0058438997    0.4893909474         -0.5487
H528       H    0.6469510955    0.0080673184    0.4556151201          0.4478
H529       H    0.6029646122    0.0078560442    0.4588692834          0.4485
C530       C    0.6057425073   -0.0074398154    0.5451385907         -0.5496
C531       C    0.6563011043   -0.0192197389    0.5401301478            0.44
C532       C    0.6442902619   -0.0215995706    0.5635996935           0.442
C533       C    0.6192868866   -0.0146509679    0.5661656691          0.4481
Br534     Br    0.6887902665   -0.0376870575    0.5388426310           0.425
C535       C    0.6735062109   -0.0131105092    0.5987258141         -0.5458
H536       H    0.6093836615   -0.0160390015    0.5852026203         -0.5499
H537       H    0.5853333174   -0.0028496431    0.5490498337         -0.5452
O538       O    0.7114047441   -0.0043753670    0.5009243777          0.4449
C539       C    0.7247790613    0.0097058170    0.4595213986         -0.5508
C540       C    0.6945603863    0.0068779890    0.4599773531          0.4473
C541       C    0.7636944864    0.0035219304    0.4935089943         -0.5504
H542       H    0.6856556672    0.0238378971    0.4499723723         -0.5409
H543       H    0.7305407314    0.0279115668    0.4494428169         -0.5381
H544       H    0.7333446579   -0.0071467663    0.4491468044          0.4342
H545       H    0.6886757295   -0.0112107208    0.4497301994          0.4314
H546       H    0.7310108101    0.0306522371    0.4955262379         -0.5284
C547       C    0.7335935402    0.0103295837    0.4886298087         -0.5456
H548       H    0.6861557237    0.0264782116    0.4958550015         -0.5314
C549       C    0.7817659866    0.0061660456    0.4741846380          0.4484
N550       N    0.8074022225    0.0037802867    0.4772007853          0.4469
C551       C    0.8187320186   -0.0010605779    0.5002401550          0.4467
C552       C    0.8009760804   -0.0043079878    0.5203437607          0.4476
C553       C    0.7744601180   -0.0020817200    0.5170877954          -0.551
H555       H    0.7751905790    0.0115426930    0.4545119290         -0.5505
H556       H    0.7615863554   -0.0040949076    0.5342466509         -0.5497
H557       H    0.8075759484   -0.0083807217    0.5403483044          0.4476
N558       N    0.8567801015    0.0025851114    0.4833283901          0.4466
C559       C    0.8827320000    0.0042110359    0.4792320193          0.4471
C560       C    0.8987886595   -0.0000000000    0.5000000000           0.447
C561       C    0.8841098048   -0.0053720384    0.5217234133          0.4464
C562       C    0.8571321952   -0.0055193544    0.5189013506           0.446
H563       H    0.8471198332   -0.0103310127    0.5372247381          0.4453
H564       H    0.8929906826   -0.0095860659    0.5408454206          0.4461
H565       H    0.8904503276    0.0087644991    0.4597255989          0.4474
H566       H    0.6810164015    0.0016940903    0.5848636265         -0.5364
H567       H    0.6620672345   -0.0034427491    0.6142725492         -0.5356
H568       H    0.6900926982   -0.0239067642    0.6073312813           0.447
O569       O    0.6568762102   -0.0318304273    0.5850435717          0.4373
C473       C    1.3987886595   -0.0000000000    0.5000000000          -0.551
C474       C    1.3863235090    0.0232500169    0.4991328829          0.4478
C475       C    1.3602299344    0.0251150112    0.4999101003          0.4469
C476       C    1.3437903867    0.0044531253    0.5033085702          0.4456
C477       C    1.3561784945   -0.0194261895    0.5071726920          0.4444
C478       C    1.3831459561   -0.0215462432    0.5032903209          0.4479
C479       C    1.3137567598    0.0111758265    0.4953305179         -0.5487
H480       H    1.3530489045    0.0449949332    0.4967511261          0.4478
H481       H    1.3970353878    0.0417369164    0.4966113302          0.4485
C482       C    1.3942574927   -0.0456768146    0.5025439784         -0.5496
C483       C    1.3436988957   -0.0419638243    0.5147940723            0.44
C484       C    1.3557097381   -0.0655531968    0.5146369689           0.442
C485       C    1.3807131134   -0.0673572768    0.5074527775          0.4481
Br486     Br    1.3112097335   -0.0426691370    0.5332927774           0.425
C487       C    1.3264937891   -0.0995631033    0.5024208007         -0.5458
H488       H    1.3906163385   -0.0864331193    0.5067861595         -0.5499
H489       H    1.4146666826   -0.0490719133    0.4975599230         -0.5452
O490       O    1.2885952559   -0.0013894033    0.5042506316          0.4449
C491       C    1.2752209387    0.0412874444    0.4947021711         -0.5508
C492       C    1.3054396137    0.0405301209    0.4974645916          0.4473
C493       C    1.2363055136    0.0068320183    0.4971963107         -0.5504
H494       H    1.3143443328    0.0523004263    0.4816785840         -0.5409
H495       H    1.2694592686    0.0532648609    0.4776854549         -0.5381
H496       H    1.2666553421    0.0497901387    0.5125724245          0.4342
H497       H    1.3113242705    0.0487732210    0.5165501066          0.4314
H498       H    1.2689891899    0.0077431662    0.4700063746         -0.5284
C499       C    1.2664064598    0.0124147967    0.4909526593         -0.5456
H500       H    1.3138442763    0.0069675707    0.4741208643         -0.5314
C501       C    1.2182340134    0.0263286380    0.4966450250          0.4484
N502       N    1.1925977775    0.0230734853    0.4986926997          0.4469
C503       C    1.1812679814   -0.0003527827    0.5010286128          0.4467
C504       C    1.1990239196   -0.0206889940    0.5020959217          0.4476
C505       C    1.2255398820   -0.0172125596    0.5002325960          -0.551
H507       H    1.2248094210    0.0464653579    0.4934144945         -0.5505
H508       H    1.2384136446   -0.0344883998    0.5003894174         -0.5497
H509       H    1.1924240516   -0.0410154454    0.5039944213          0.4476
N510       N    1.1432198985    0.0168529044    0.4992221872          0.4466
C511       C    1.1172680000    0.0211003323    0.4980460749          0.4471
C512       C    1.1012113405   -0.0000000000    0.5000000000           0.447
C513       C    1.1158901952   -0.0221750435    0.5030054830          0.4464
C514       C    1.1428678048   -0.0193851740    0.5034553369           0.446
H515       H    1.1528801668   -0.0381196524    0.5062692145          0.4453
H516       H    1.1070093174   -0.0416392636    0.5051393362          0.4461
H517       H    1.1095496724    0.0409832292    0.4956160805          0.4474
H518       H    1.3189835985   -0.0841896573    0.4891922873         -0.5364
H519       H    1.3379327655   -0.1139803819    0.4911376877         -0.5356
H520       H    1.3099073018   -0.1092793699    0.5122293353           0.447
O521       O    1.3431237898   -0.0879726826    0.5225031620          0.4373
C425       C   -0.0000000000   -0.3987886595    0.0000000000          -0.551
C426       C    0.0217732194   -0.3863235090   -0.0082001276          0.4478
C427       C    0.0237884556   -0.3602299344   -0.0080548899          0.4469
C428       C    0.0052728669   -0.3437903867    0.0017244814          0.4456
C429       C   -0.0161460998   -0.3561784945    0.0129664108          0.4444
C430       C   -0.0193885578   -0.3831459561    0.0099574411          0.4479
C431       C    0.0091164759   -0.3137567598   -0.0079745237         -0.5487
H432       H    0.0416384929   -0.3530489045   -0.0173590063          0.4478
H433       H    0.0385045006   -0.3970353878   -0.0164577249          0.4485
C434       C   -0.0425088138   -0.3942574927    0.0169069207         -0.5496
C435       C   -0.0351004547   -0.3436988957    0.0273456616            0.44
C436       C   -0.0575205020   -0.3557097381    0.0346821902           0.442
C437       C   -0.0615110692   -0.3807131134    0.0284417827          0.4481
Br438     Br   -0.0298992013   -0.3112097335    0.0451121053           0.425
C439       C   -0.0936491655   -0.3264937891    0.0338896093         -0.5458
H440       H   -0.0798125429   -0.3906163385    0.0338628714         -0.5499
H441       H   -0.0473100109   -0.4146666826    0.0132578098         -0.5452
O442       O    0.0000312401   -0.2885952559    0.0044718379          0.4449
C443       C    0.0374724337   -0.2752209387   -0.0181255833         -0.5508
C444       C    0.0376308380   -0.3054396137   -0.0152656159          0.4473
C445       C    0.0055892342   -0.2363055136   -0.0048267597         -0.5504
H446       H    0.0437835098   -0.3143443328   -0.0339707690         -0.5409
H447       H    0.0434309770   -0.2694592686   -0.0380635595         -0.5381
H448       H    0.0512063695   -0.2666553421   -0.0038770474          0.4342
H449       H    0.0515042299   -0.3113242705    0.0002177488          0.4314
H450       H   -0.0021747725   -0.2689891899   -0.0309005591         -0.5284
C451       C    0.0089022053   -0.2664064598   -0.0125192768         -0.5456
H452       H   -0.0016046496   -0.3138442763   -0.0267526037         -0.5314
C453       C    0.0239032660   -0.2182340134   -0.0115363300          0.4484
N454       N    0.0214661302   -0.1925977775   -0.0085615427          0.4469
C455       C   -0.0000081446   -0.1812679814    0.0010873976          0.4467
C456       C   -0.0189546276   -0.1990239196    0.0085527453          0.4476
C457       C   -0.0162491481   -0.2255398820    0.0056825608          -0.551
H459       H    0.0419741225   -0.2248094210   -0.0209897930         -0.5505
H460       H   -0.0325823513   -0.2384136446    0.0113133439         -0.5497
H461       H   -0.0376280972   -0.1924240516    0.0168032279          0.4476
N462       N    0.0157350697   -0.1432198985   -0.0060854712          0.4466
C463       C    0.0193897657   -0.1172680000   -0.0085486157          0.4471
C464       C   -0.0000000000   -0.1012113405   -0.0000000000           0.447
C465       C   -0.0200752459   -0.1158901952    0.0098868590          0.4464
C466       C   -0.0172868162   -0.1428678048    0.0094281659           0.446
H467       H   -0.0341601183   -0.1528801668    0.0180415429          0.4453
H468       H   -0.0378563635   -0.1070093174    0.0180869232          0.4461
H469       H    0.0374739482   -0.1095496724   -0.0171623725          0.4474
H470       H   -0.0832680171   -0.3189835985    0.0164664016         -0.5364
H471       H   -0.1109017315   -0.3379327655    0.0277646174         -0.5356
H472       H   -0.0997507634   -0.3099073018    0.0462744263           0.447
O473       O   -0.0762851289   -0.3431237898    0.0492561093          0.4373
C377       C    0.0000000000    0.1012113405   -0.0000000000          -0.551
C378       C   -0.0190808759    0.1136764910    0.0133129768          0.4478
C379       C   -0.0210697513    0.1397700656    0.0136688497          0.4469
C380       C   -0.0055352219    0.1562096133   -0.0003718599          0.4456
C381       C    0.0124527107    0.1438215055   -0.0165455234          0.4444
C382       C    0.0163366916    0.1168540439   -0.0144284203          0.4479
C383       C   -0.0068700827    0.1862432402    0.0099752255         -0.5487
H384       H   -0.0360763768    0.1469510955    0.0270849446          0.4478
H385       H   -0.0332611517    0.1029646122    0.0254391246          0.4485
C386       C    0.0370312669    0.1057425073   -0.0268612824         -0.5496
C387       C    0.0272788879    0.1563011043   -0.0351523740            0.44
C388       C    0.0471994664    0.1442902619   -0.0477877896           0.442
C389       C    0.0526048334    0.1192868866   -0.0427232739          0.4481
Br390     Br    0.0178597183    0.1887902665   -0.0510890864           0.425
C391       C    0.0824091901    0.1735062109   -0.0559231366         -0.5458
H392       H    0.0690058989    0.1093836615   -0.0524873507         -0.5499
H393       H    0.0425836683    0.0853333174   -0.0245079139         -0.5452
O394       O   -0.0011323084    0.2114047441   -0.0043262210          0.4449
C395       C   -0.0318498912    0.2247790613    0.0268012030         -0.5508
C396       C   -0.0327082155    0.1945603863    0.0240684781          0.4473
C397       C   -0.0042273558    0.2636944864    0.0060552961         -0.5504
H398       H   -0.0340614650    0.1856556672    0.0437129898         -0.5409
H399       H   -0.0327111848    0.2305407314    0.0475926750         -0.5381
H400       H   -0.0486716358    0.2333446579    0.0163766800          0.4342
H401       H   -0.0499694240    0.1886757295    0.0124815777          0.4314
H402       H    0.0097227781    0.2310108101    0.0294115925         -0.5284
C403       C   -0.0055424196    0.2335935402    0.0143270072         -0.5456
H404       H    0.0081480239    0.1861557237    0.0255320663         -0.5314
C405       C   -0.0203230608    0.2817659866    0.0170712106          0.4484
N406       N   -0.0186941913    0.3074022225    0.0135875668          0.4469
C407       C   -0.0002600830    0.3187320186   -0.0010558678          0.4467
C408       C    0.0162623151    0.3009760804   -0.0129601105          0.4476
C409       C    0.0143475998    0.2744601180   -0.0095117133          -0.551
H411       H   -0.0355068905    0.2751905790    0.0306864644         -0.5505
H412       H    0.0287894225    0.2615863554   -0.0189939601         -0.5497
H413       H    0.0323266328    0.3075759484   -0.0255579925          0.4476
N414       N   -0.0137500839    0.3567801015    0.0097755087          0.4466
C415       C   -0.0166850507    0.3827320000    0.0130633430          0.4471
C416       C   -0.0000000000    0.3987886595    0.0000000000           0.447
C417       C    0.0170195954    0.3841098048   -0.0145292413          0.4464
C418       C    0.0144302045    0.3571321952   -0.0133975194           0.446
H419       H    0.0286604434    0.3471198332   -0.0259034734          0.4453
H420       H    0.0322315074    0.3929906826   -0.0268583503          0.4461
H421       H   -0.0320887310    0.3904503276    0.0258680724          0.4474
H422       H    0.0766419561    0.1810164015   -0.0364789750         -0.5364
H423       H    0.1006390932    0.1620672345   -0.0542387403         -0.5356
H424       H    0.0852705133    0.1900926982   -0.0694296542           0.447
O425       O    0.0617937934    0.1568762102   -0.0665365485          0.4373
C329       C   -0.1012113405   -0.0000000000    0.0000000000          -0.551
C330       C   -0.1136764910    0.0222337791   -0.0068537758          0.4478
C331       C   -0.1397700656    0.0242363678   -0.0065856166          0.4469
C332       C   -0.1562096133    0.0051575863    0.0020435911          0.4456
C333       C   -0.1438215055   -0.0169085505    0.0119551356          0.4444
C334       C   -0.1168540439   -0.0199610035    0.0087535791          0.4479
C335       C   -0.1862432402    0.0095869154   -0.0074023114         -0.5487
H336       H   -0.1469510955    0.0426217899   -0.0147811440          0.4478
H337       H   -0.1029646122    0.0394385628   -0.0140731318          0.4485
C338       C   -0.1057425073   -0.0434628467    0.0142767004         -0.5496
C339       C   -0.1563011043   -0.0367064722    0.0251487977            0.44
C340       C   -0.1442902619   -0.0595330769    0.0311010485           0.442
C341       C   -0.1192868866   -0.0631346993    0.0246283653          0.4481
Br342     Br   -0.1887902665   -0.0326010244    0.0431999710           0.425
C343       C   -0.1735062109   -0.0955457200    0.0281013737         -0.5458
H344       H   -0.1093836615   -0.0817333407    0.0289205304         -0.5499
H345       H   -0.0853333174   -0.0480319911    0.0103409129         -0.5452
O346       O   -0.2114047441   -0.0002421856    0.0044653842          0.4449
C347       C   -0.2247790613    0.0385103837   -0.0158009620         -0.5508
C348       C   -0.1945603863    0.0384936596   -0.0129366601          0.4473
C349       C   -0.2636944864    0.0058738450   -0.0044760578         -0.5504
H350       H   -0.1856556672    0.0457782864   -0.0312307119         -0.5409
H351       H   -0.2305407314    0.0456766087   -0.0353373986         -0.5381
H352       H   -0.2333446579    0.0513476085   -0.0007395070          0.4342
H353       H   -0.1886757295    0.0513945935    0.0033658393          0.4314
H354       H   -0.2310108101   -0.0002817275   -0.0309757134         -0.5284
C355       C   -0.2335935402    0.0096508702   -0.0119516633         -0.5456
H356       H   -0.1861557237    0.0000337611   -0.0268006635         -0.5314
C357       C   -0.2817659866    0.0245637869   -0.0100535272          0.4484
N358       N   -0.3074022225    0.0219493579   -0.0072332876          0.4469
C359       C   -0.3187320186   -0.0000746029    0.0010848660          0.4467
C360       C   -0.3009760804   -0.0194420145    0.0073780370          0.4476
C361       C   -0.2744601180   -0.0165661381    0.0046786087          -0.551
H363       H   -0.2751905790    0.0431787448   -0.0183846229         -0.5505
H364       H   -0.2615863554   -0.0332130089    0.0093003981         -0.5497
H365       H   -0.3075759484   -0.0385849194    0.0144715640          0.4476
N366       N   -0.3567801015    0.0160776514   -0.0051121916          0.4466
C367       C   -0.3827320000    0.0198760864   -0.0073473147          0.4471
C368       C   -0.3987886595   -0.0000000000    0.0000000000           0.447
C369       C   -0.3841098048   -0.0206420926    0.0086411512          0.4464
C370       C   -0.3571321952   -0.0178308376    0.0083537751           0.446
H371       H   -0.3471198332   -0.0351991257    0.0159195635          0.4453
H372       H   -0.3929906826   -0.0388912321    0.0157389044          0.4461
H373       H   -0.3904503276    0.0384530135   -0.0148394602          0.4474
H374       H   -0.1810164015   -0.0841188912    0.0113453601         -0.5364
H375       H   -0.1620672345   -0.1123915936    0.0209331728         -0.5356
H376       H   -0.1900926982   -0.1023930010    0.0400900322           0.447
O377       O   -0.1568762102   -0.0791535256    0.0445006131          0.4373
C281       C    0.3987886595   -0.0000000000    0.0000000000          -0.551
C282       C    0.3863235090    0.0209614400   -0.0100961978          0.4478
C283       C    0.3602299344    0.0229816201   -0.0101300053          0.4469
C284       C    0.3437903867    0.0054048722    0.0012507268          0.4456
C285       C    0.3561784945   -0.0149343173    0.0143454005          0.4444
C286       C    0.3831459561   -0.0184305165    0.0116354144          0.4479
C287       C    0.3137567598    0.0083744097   -0.0087505670         -0.5487
H288       H    0.3530489045    0.0399375217   -0.0209784069          0.4478
H289       H    0.3970353878    0.0368956638   -0.0198031126          0.4485
C290       C    0.3942574927   -0.0408444606    0.0206051756         -0.5496
C291       C    0.3436988957   -0.0325407303    0.0303467955            0.44
C292       C    0.3557097381   -0.0542229391    0.0396400724           0.442
C293       C    0.3807131134   -0.0587504921    0.0337776007          0.4481
Br294     Br    0.3112097335   -0.0257864733    0.0475827919           0.425
C295       C    0.3264937891   -0.0902798323    0.0420502522         -0.5458
H296       H    0.3906163385   -0.0764999470    0.0407982129         -0.5499
H297       H    0.4146666826   -0.0459499665    0.0173956096         -0.5452
O298       O    0.2885952559    0.0004271547    0.0044514997          0.4449
C299       C    0.2752209387    0.0357199424   -0.0213730149         -0.5508
C300       C    0.3054396137    0.0361310104   -0.0185383141          0.4473
C301       C    0.2363055136    0.0051398019   -0.0053027903         -0.5504
H302       H    0.3143443328    0.0406029300   -0.0377148637         -0.5409
H303       H    0.2694592686    0.0398893145   -0.0417603510         -0.5381
H304       H    0.2666553421    0.0506617989   -0.0083967792          0.4342
H305       H    0.3113242705    0.0513211345   -0.0043444524          0.4314
H306       H    0.2689891899   -0.0049028591   -0.0305865356         -0.5284
C307       C    0.2664064598    0.0077584861   -0.0132584857         -0.5456
H308       H    0.3138442763   -0.0039676229   -0.0265053706         -0.5314
C309       C    0.2182340134    0.0227876542   -0.0136079334          0.4484
N310       N    0.1925977775    0.0206235496   -0.0104289962          0.4469
C311       C    0.1812679814    0.0000881901    0.0010838461          0.4467
C312       C    0.1990239196   -0.0181226947    0.0101978083          0.4476
C313       C    0.2255398820   -0.0156820369    0.0070992977          -0.551
H315       H    0.2248094210    0.0399502807   -0.0246246511         -0.5505
H316       H    0.2384136446   -0.0314523843    0.0141544653         -0.5497
H317       H    0.1924240516   -0.0359921054    0.0200696415          0.4476
N318       N    0.1432198985    0.0151342958   -0.0074550968          0.4466
C319       C    0.1172680000    0.0185564888   -0.0102322319          0.4471
C320       C    0.1012113405   -0.0000000000    0.0000000000           0.447
C321       C    0.1158901952   -0.0191207573    0.0116259246          0.4464
C322       C    0.1428678048   -0.0163839073    0.0109220834           0.446
H323       H    0.1528801668   -0.0324280853    0.0209959577          0.4453
H324       H    0.1070093174   -0.0361057875    0.0213685086          0.4461
H325       H    0.1095496724    0.0358067554   -0.0204137231          0.4474
H326       H    0.3189835985   -0.0814825189    0.0237761261         -0.5364
H327       H    0.3379327655   -0.1080070512    0.0374772588         -0.5356
H328       H    0.3099073018   -0.0952606238    0.0549267775           0.447
O329       O    0.3431237898   -0.0716231292    0.0558185681          0.4373
C233       C   -0.0000000000    0.0000000000   -0.1012113405          -0.551
C234       C   -0.0118854950    0.0200012546   -0.1136764910          0.4478
C235       C   -0.0135502054    0.0211462480   -0.1397700656          0.4469
C236       C   -0.0051952806    0.0019457699   -0.1562096133          0.4456
C237       C    0.0045140420   -0.0202100909   -0.1438215055          0.4444
C238       C    0.0089255667   -0.0198846943   -0.1168540439          0.4479
C239       C   -0.0021407297    0.0119214276   -0.1862432402         -0.5487
H240       H   -0.0216820735    0.0395599151   -0.1469510955          0.4478
H241       H   -0.0197970583    0.0368989127   -0.1029646122          0.4485
C242       C    0.0226441532   -0.0397502899   -0.1057425073         -0.5496
C243       C    0.0103392324   -0.0432773312   -0.1563011043            0.44
C244       C    0.0232692194   -0.0630079828   -0.1442902619           0.442
C245       C    0.0302829607   -0.0606258107   -0.1192868866          0.4481
Br246     Br   -0.0048176616   -0.0539059776   -0.1887902665           0.425
C247       C    0.0519827206   -0.0849498003   -0.1735062109         -0.5458
H248       H    0.0411922182   -0.0762885131   -0.1093836615         -0.5499
H249       H    0.0286728848   -0.0398982748   -0.0853333174         -0.5452
O250       O   -0.0028168797   -0.0034732548   -0.2114047441          0.4449
C251       C   -0.0179494454    0.0375571227   -0.2247790613         -0.5508
C252       C   -0.0198591007    0.0354222404   -0.1945603863          0.4473
C253       C   -0.0013514003    0.0072602249   -0.2636944864         -0.5504
H254       H   -0.0129840906    0.0538741335   -0.1856556672         -0.5409
H255       H   -0.0101529623    0.0568506964   -0.2305407314         -0.5381
H256       H   -0.0375740667    0.0350044752   -0.2333446579          0.4342
H257       H   -0.0403637451    0.0319922052   -0.1886757295          0.4314
H258       H    0.0209947546    0.0227770601   -0.2310108101         -0.5284
C259       C    0.0008646399    0.0153373384   -0.2335935402         -0.5456
H260       H    0.0179592277    0.0198932864   -0.1861557237         -0.5314
C261       C   -0.0114658624    0.0239371476   -0.2817659866          0.4484
N262       N   -0.0114199517    0.0200917760   -0.3074022225          0.4469
C263       C   -0.0006726738   -0.0008544061   -0.3187320186          0.4467
C264       C    0.0094638171   -0.0185165743   -0.3009760804          0.4476
C265       C    0.0091429943   -0.0145853339   -0.2744601180          -0.551
H267       H   -0.0196769421    0.0426053555   -0.2751905790         -0.5505
H268       H    0.0183839736   -0.0291827155   -0.2615863554         -0.5497
H269       H    0.0188967843   -0.0366214924   -0.3075759484          0.4476
N270       N   -0.0084898685    0.0145790093   -0.3567801015          0.4466
C271       C   -0.0098062638    0.0187850748   -0.3827320000          0.4471
C272       C   -0.0000000000    0.0000000000   -0.3987886595           0.447
C273       C    0.0095059853   -0.0202583742   -0.3841098048          0.4464
C274       C    0.0076144961   -0.0181588484   -0.3571321952           0.446
H275       H    0.0154148161   -0.0354230772   -0.3471198332          0.4453
H276       H    0.0182734583   -0.0377666754   -0.3929906826          0.4461
H277       H   -0.0185521140    0.0368057454   -0.3904503276          0.4474
H278       H    0.0547545245   -0.0648586701   -0.1810164015         -0.5364
H279       H    0.0692827746   -0.0909393489   -0.1620672345         -0.5356
H280       H    0.0490146097   -0.0984332534   -0.1900926982           0.447
O281       O    0.0288246588   -0.0861087930   -0.1568762102          0.4373
C185       C   -0.0000000000    0.0000000000    0.3987886595          -0.551
C186       C    0.0206174625    0.0107812532    0.3863235090          0.4478
C187       C    0.0218512099    0.0123812963    0.3602299344          0.4469
C188       C    0.0022251603    0.0050818916    0.3437903867          0.4456
C189       C   -0.0204254923   -0.0034093417    0.3561784945          0.4444
C190       C   -0.0203402586   -0.0078320296    0.3831459561          0.4479
C191       C    0.0120201273    0.0014898656    0.3137567598         -0.5487
H192       H    0.0406794917    0.0195007218    0.3530489045          0.4478
H193       H    0.0379200050    0.0177630655    0.3970353878          0.4485
C194       C   -0.0409218560   -0.0204510372    0.3942574927         -0.5496
C195       C   -0.0437751501   -0.0079726635    0.3436988957            0.44
C196       C   -0.0641791573   -0.0198115681    0.3557097381           0.442
C197       C   -0.0621815668   -0.0269443756    0.3807131134          0.4481
Br198     Br   -0.0535646096    0.0077393077    0.3112097335           0.425
C199       C   -0.0876485977   -0.0472905398    0.3264937891         -0.5458
H200       H   -0.0784138452   -0.0369865509    0.3906163385         -0.5499
H201       H   -0.0413971689   -0.0264628241    0.4146666826         -0.5452
O202       O   -0.0033150811    0.0030014243    0.2885952559          0.4449
C203       C    0.0384768603    0.0158824204    0.2752209387         -0.5508
C204       C    0.0364488846    0.0179052453    0.3054396137          0.4473
C205       C    0.0073229243    0.0009549495    0.2363055136         -0.5504
H206       H    0.0544999983    0.0100378812    0.3143443328         -0.5409
H207       H    0.0573183469    0.0070492151    0.2694592686         -0.5381
H208       H    0.0369942070    0.0356167435    0.2666553421          0.4342
H209       H    0.0341379520    0.0385659609    0.3113242705          0.4314
H210       H    0.0216027535   -0.0222012439    0.2689891899         -0.5284
C211       C    0.0152677082   -0.0016966547    0.2664064598         -0.5456
H212       H    0.0188881621   -0.0190135224    0.3138442763         -0.5314
C213       C    0.0245247430    0.0101483996    0.2182340134          0.4484
N214       N    0.0206825567    0.0103114794    0.1925977775          0.4469
C215       C   -0.0008165971    0.0007181010    0.1812679814          0.4467
C216       C   -0.0190034030   -0.0084438162    0.1990239196          0.4476
C217       C   -0.0150605385   -0.0083370552    0.2255398820          -0.551
H219       H    0.0436114933    0.0173330904    0.2248094210         -0.5505
H220       H   -0.0301384305   -0.0167712961    0.2384136446         -0.5497
H221       H   -0.0375940818   -0.0168791937    0.1924240516          0.4476
N222       N    0.0150187383    0.0076852377    0.1432198985          0.4466
C223       C    0.0192901124    0.0087711692    0.1172680000          0.4471
C224       C   -0.0000000000    0.0000000000    0.1012113405           0.447
C225       C   -0.0207449213   -0.0083912885    0.1158901952          0.4464
C226       C   -0.0185457302   -0.0066166622    0.1428678048           0.446
H227       H   -0.0362082580   -0.0134674795    0.1528801668          0.4453
H228       H   -0.0387037074   -0.0161945695    0.1070093174          0.4461
H229       H    0.0377593363    0.0165250218    0.1095496724          0.4474
H230       H   -0.0677377371   -0.0511498194    0.3189835985         -0.5364
H231       H   -0.0945692276   -0.0642396235    0.3379327655         -0.5356
H232       H   -0.1009508752   -0.0435942442    0.3099073018           0.447
O233       O   -0.0875476794   -0.0241037136    0.3431237898          0.4373
loop_
_geom_bond_atom_site_label_1
_geom_bond_atom_site_label_2
_geom_bond_distance
_geom_bond_site_symmetry_2
_ccdc_geom_bond_type
Zn1          O5 1.942       .   S
Zn1          O6 1.922       .   S
Zn1         O10 1.922       .   S
Zn1         O17 1.922       .   S
Zn2          O5 1.942       .   S
Zn2          O7 1.922       .   S
Zn2          O9 1.922       .   S
Zn2         O13 1.922       .   S
Zn3          O5 1.942       .   S
Zn3          O8 1.922       .   S
Zn3         O11 1.922       .   S
Zn3         O14 1.922       .   S
Zn4          O5 1.942       .   S
Zn4         O12 1.922       .   S
Zn4         O15 1.922       .   S
Zn4         O16 1.922       .   S
O6          C18 1.304       .   A
O7          C19 1.304       .   A
O8          C20 1.304       .   A
O9          C18 1.304       .   A
O10         C20 1.304       .   A
O11         C19 1.304       .   A
O12         C21 1.304       .   A
O13         C22 1.304       .   A
O14         C21 1.304       .   A
O15         C22 1.304       .   A
O16         C23 1.304       .   A
O17         C23 1.304       .   A
C18        C224 1.540       .   S
C19        C320 1.540       .   S
C20        C464 1.540       .   S
C21        C233 1.540       .   S
C22        C377 1.540       .   S
C23        C329 1.540       .   S
Zn24        O28 1.942       .   S
Zn24        O29 1.922       .   S
Zn24        O33 1.922       .   S
Zn24        O40 1.922       .   S
Zn25        O28 1.942       .   S
Zn25        O30 1.922       .   S
Zn25        O32 1.922       .   S
Zn25        O36 1.922       .   S
Zn26        O28 1.942       .   S
Zn26        O31 1.922       .   S
Zn26        O34 1.922       .   S
Zn26        O37 1.922       .   S
Zn27        O28 1.942       .   S
Zn27        O35 1.922       .   S
Zn27        O38 1.922       .   S
Zn27        O39 1.922       .   S
O29         C41 1.304       .   A
O30         C42 1.304       .   A
O31         C43 1.304       .   A
O32         C41 1.304       .   A
O33         C43 1.304       .   A
O34         C42 1.304       .   A
O35         C44 1.304       .   A
O36         C45 1.304       .   A
O37         C44 1.304       .   A
O38         C45 1.304       .   A
O39         C46 1.304       .   A
O40         C46 1.304       .   A
C41        C185 1.540   1_655   S
C42        C512 1.540       .   S
C43        C608 1.540       .   S
C44        C272 1.540   1_656   S
C45        C656 1.540       .   S
C46        C560 1.540       .   S
Zn47        O51 1.942       .   S
Zn47        O52 1.922       .   S
Zn47        O56 1.922       .   S
Zn47        O63 1.922       .   S
Zn48        O51 1.942       .   S
Zn48        O53 1.922       .   S
Zn48        O55 1.922       .   S
Zn48        O59 1.922       .   S
Zn49        O51 1.942       .   S
Zn49        O54 1.922       .   S
Zn49        O57 1.922       .   S
Zn49        O60 1.922       .   S
Zn50        O51 1.942       .   S
Zn50        O58 1.922       .   S
Zn50        O61 1.922       .   S
Zn50        O62 1.922       .   S
O52         C64 1.304       .   A
O53         C65 1.304       .   A
O54         C66 1.304       .   A
O55         C64 1.304       .   A
O56         C66 1.304       .   A
O57         C65 1.304       .   A
O58         C67 1.304       .   A
O59         C68 1.304       .   A
O60         C67 1.304       .   A
O61         C68 1.304       .   A
O62         C69 1.304       .   A
O63         C69 1.304       .   A
C64        C416 1.540   1_655   S
C65        C665 1.540       .   S
C66        C761 1.540       .   S
C67        C425 1.540   1_665   S
C68        C848 1.540       .   S
C69        C713 1.540       .   S
Zn70        O74 1.942       .   S
Zn70        O75 1.922       .   S
Zn70        O79 1.922       .   S
Zn70        O86 1.922       .   S
Zn71        O74 1.942       .   S
Zn71        O76 1.922       .   S
Zn71        O78 1.922       .   S
Zn71        O82 1.922       .   S
Zn72        O74 1.942       .   S
Zn72        O77 1.922       .   S
Zn72        O80 1.922       .   S
Zn72        O83 1.922       .   S
Zn73        O74 1.942       .   S
Zn73        O81 1.922       .   S
Zn73        O84 1.922       .   S
Zn73        O85 1.922       .   S
O75         C87 1.304       .   A
O76         C88 1.304       .   A
O77         C89 1.304       .   A
O78         C87 1.304       .   A
O79         C89 1.304       .   A
O80         C88 1.304       .   A
O81         C90 1.304       .   A
O82         C91 1.304       .   A
O83         C90 1.304       .   A
O84         C91 1.304       .   A
O85         C92 1.304       .   A
O86         C92 1.304       .   A
C87        C569 1.540       .   S
C88        C704 1.540       .   S
C89        C944 1.540       .   S
C90        C617 1.540   1_565   S
C91        C857 1.540       .   S
C92        C752 1.540   1_556   S
Zn93        O97 1.942       .   S
Zn93        O98 1.922       .   S
Zn93       O102 1.922       .   S
Zn93       O109 1.922       .   S
Zn94        O97 1.942       .   S
Zn94        O99 1.922       .   S
Zn94       O101 1.922       .   S
Zn94       O105 1.922       .   S
Zn95        O97 1.942       .   S
Zn95       O100 1.922       .   S
Zn95       O103 1.922       .   S
Zn95       O106 1.922       .   S
Zn96        O97 1.942       .   S
Zn96       O104 1.922       .   S
Zn96       O107 1.922       .   S
Zn96       O108 1.922       .   S
O98        C110 1.304       .   A
O99        C111 1.304       .   A
O100       C112 1.304       .   A
O101       C110 1.304       .   A
O102       C112 1.304       .   A
O103       C111 1.304       .   A
O104       C113 1.304       .   A
O105       C114 1.304       .   A
O106       C113 1.304       .   A
O107       C114 1.304       .   A
O108       C115 1.304       .   A
O109       C115 1.304       .   A
C110       C281 1.540   1_565   S
C111       C953 1.540       .   S
C112      C1136 1.540       .   S
C113       C368 1.540   1_665   S
C114      C1049 1.540       .   S
C115      C1001 1.540       .   S
Zn116      O120 1.942       .   S
Zn116      O121 1.922       .   S
Zn116      O125 1.922       .   S
Zn116      O132 1.922       .   S
Zn117      O120 1.942       .   S
Zn117      O122 1.922       .   S
Zn117      O124 1.922       .   S
Zn117      O128 1.922       .   S
Zn118      O120 1.942       .   S
Zn118      O123 1.922       .   S
Zn118      O126 1.922       .   S
Zn118      O129 1.922       .   S
Zn119      O120 1.942       .   S
Zn119      O127 1.922       .   S
Zn119      O130 1.922       .   S
Zn119      O131 1.922       .   S
O121       C133 1.304       .   A
O122       C134 1.304       .   A
O123       C135 1.304       .   A
O124       C133 1.304       .   A
O125       C135 1.304       .   A
O126       C134 1.304       .   A
O127       C136 1.304       .   A
O128       C137 1.304       .   A
O129       C136 1.304       .   A
O130       C137 1.304       .   A
O131       C138 1.304       .   A
O132       C138 1.304       .   A
C133       C473 1.540   1_465   S
C134      C1040 1.540   1_556   S
C135      C1193 1.540       .   S
C136       C521 1.540   1_565   S
C137      C1145 1.540       .   S
C138       C992 1.540       .   S
Zn139      O143 1.942       .   S
Zn139      O144 1.922       .   S
Zn139      O148 1.922       .   S
Zn139      O155 1.922       .   S
Zn140      O143 1.942       .   S
Zn140      O145 1.922       .   S
Zn140      O147 1.922       .   S
Zn140      O151 1.922       .   S
Zn141      O143 1.942       .   S
Zn141      O146 1.922       .   S
Zn141      O149 1.922       .   S
Zn141      O152 1.922       .   S
Zn142      O143 1.942       .   S
Zn142      O150 1.922       .   S
Zn142      O153 1.922       .   S
Zn142      O154 1.922       .   S
O144       C156 1.304       .   A
O145       C157 1.304       .   A
O146       C158 1.304       .   A
O147       C156 1.304       .   A
O148       C158 1.304       .   A
O149       C157 1.304       .   A
O150       C159 1.304       .   A
O151       C160 1.304       .   A
O152       C159 1.304       .   A
O153       C160 1.304       .   A
O154       C161 1.304       .   A
O155       C161 1.304       .   A
C156       C800 1.540   1_455   S
C157      C1241 1.540       .   S
C158      C1088 1.540   1_545   S
C159       C809 1.540       .   S
C160      C1097 1.540       .   S
C161      C1328 1.540       .   S
Zn162      O166 1.942       .   S
Zn162      O167 1.922       .   S
Zn162      O171 1.922       .   S
Zn162      O178 1.922       .   S
Zn163      O166 1.942       .   S
Zn163      O168 1.922       .   S
Zn163      O170 1.922       .   S
Zn163      O174 1.922       .   S
Zn164      O166 1.942       .   S
Zn164      O169 1.922       .   S
Zn164      O172 1.922       .   S
Zn164      O175 1.922       .   S
Zn165      O166 1.942       .   S
Zn165      O173 1.922       .   S
Zn165      O176 1.922       .   S
Zn165      O177 1.922       .   S
O167       C179 1.304       .   A
O168       C180 1.304       .   A
O169       C181 1.304       .   A
O170       C179 1.304       .   A
O171       C181 1.304       .   A
O172       C180 1.304       .   A
O173       C182 1.304       .   A
O174       C183 1.304       .   A
O175       C182 1.304       .   A
O176       C183 1.304       .   A
O177       C184 1.304       .   A
O178       C184 1.304       .   A
C179       C896 1.540   1_455   S
C180      C1289 1.540   1_556   S
C181      C1184 1.540   1_545   S
C182       C905 1.540       .   S
C183      C1232 1.540       .   S
C184      C1280 1.540       .   S
C1289     C1290 0.021       .   A
C1289     C1294 0.022       .   A
C1290     C1291 0.021       .   A
C1290     H1297 0.017       .   A
C1291     C1292 0.021       .   A
C1291     H1296 0.017       .   A
C1292     C1293 0.022       .   A
C1292     C1295 0.026       .   A
C1293     C1294 0.022       .   A
C1293     C1299 0.022       .   A
C1294     C1298 0.021       .   A
C1295     O1306 0.024       .   A
C1295     C1308 0.025       .   A
C1295     H1316 0.017       .   A
C1298     C1301 0.021       .   A
C1298     H1305 0.017       .   A
C1299     C1300 0.021       .   A
C1299    Br1302 0.030       .   A
C1300     C1301 0.021       .   A
C1300     O1337 0.022       .   A
C1301     H1304 0.017       .   A
C1303     H1334 0.017       .   A
C1303     H1335 0.017       .   A
C1303     H1336 0.017       .   A
C1303     O1337 0.023       .   A
O1306     C1315 0.024       .   A
C1307     C1308 0.024       .   A
C1307     H1311 0.017       .   A
C1307     H1312 0.017       .   A
C1307     C1315 0.024       .   A
C1308     H1310 0.017       .   A
C1308     H1313 0.017       .   A
C1309     C1315 0.025       .   A
C1309     C1317 0.021       .   A
C1309     C1321 0.021       .   A
H1314     C1315 0.017       .   A
C1317     N1318 0.021       .   A
C1317     H1323 0.017       .   A
N1318     C1319 0.021       .   A
C1319     C1320 0.022       .   A
C1320     C1321 0.022       .   A
C1320     H1325 0.017       .   A
C1321     H1324 0.017       .   A
N1326     C1327 0.021       .   A
C1327     C1328 0.021       .   A
C1327     H1333 0.017       .   A
C1328     C1329 0.022       .   A
C1329     C1330 0.022       .   A
C1329     H1332 0.017       .   A
C1330     H1331 0.017       .   A
C1241     C1242 0.021       .   A
C1241     C1246 0.022       .   A
C1242     C1243 0.021       .   A
C1242     H1249 0.017       .   A
C1243     C1244 0.021       .   A
C1243     H1248 0.017       .   A
C1244     C1245 0.022       .   A
C1244     C1247 0.026       .   A
C1245     C1246 0.022       .   A
C1245     C1251 0.022       .   A
C1246     C1250 0.021       .   A
C1247     O1258 0.024       .   A
C1247     C1260 0.025       .   A
C1247     H1268 0.017       .   A
C1250     C1253 0.021       .   A
C1250     H1257 0.017       .   A
C1251     C1252 0.021       .   A
C1251    Br1254 0.030       .   A
C1252     C1253 0.021       .   A
C1252     O1289 0.022       .   A
C1253     H1256 0.017       .   A
C1255     H1286 0.017       .   A
C1255     H1287 0.017       .   A
C1255     H1288 0.017       .   A
C1255     O1289 0.023       .   A
O1258     C1267 0.024       .   A
C1259     C1260 0.024       .   A
C1259     H1263 0.017       .   A
C1259     H1264 0.017       .   A
C1259     C1267 0.024       .   A
C1260     H1262 0.017       .   A
C1260     H1265 0.017       .   A
C1261     C1267 0.025       .   A
C1261     C1269 0.021       .   A
C1261     C1273 0.021       .   A
H1266     C1267 0.017       .   A
C1269     N1270 0.021       .   A
C1269     H1275 0.017       .   A
N1270     C1271 0.021       .   A
C1271     C1272 0.022       .   A
C1272     C1273 0.022       .   A
C1272     H1277 0.017       .   A
C1273     H1276 0.017       .   A
N1278     C1279 0.021       .   A
C1279     C1280 0.021       .   A
C1279     H1285 0.017       .   A
C1280     C1281 0.022       .   A
C1281     C1282 0.022       .   A
C1281     H1284 0.017       .   A
C1282     H1283 0.017       .   A
C1193     C1194 0.021       .   A
C1193     C1198 0.022       .   A
C1194     C1195 0.021       .   A
C1194     H1201 0.017       .   A
C1195     C1196 0.021       .   A
C1195     H1200 0.017       .   A
C1196     C1197 0.022       .   A
C1196     C1199 0.026       .   A
C1197     C1198 0.022       .   A
C1197     C1203 0.022       .   A
C1198     C1202 0.021       .   A
C1199     O1210 0.024       .   A
C1199     C1212 0.025       .   A
C1199     H1220 0.017       .   A
C1202     C1205 0.021       .   A
C1202     H1209 0.017       .   A
C1203     C1204 0.021       .   A
C1203    Br1206 0.030       .   A
C1204     C1205 0.021       .   A
C1204     O1241 0.022       .   A
C1205     H1208 0.017       .   A
C1207     H1238 0.017       .   A
C1207     H1239 0.017       .   A
C1207     H1240 0.017       .   A
C1207     O1241 0.023       .   A
O1210     C1219 0.024       .   A
C1211     C1212 0.024       .   A
C1211     H1215 0.017       .   A
C1211     H1216 0.017       .   A
C1211     C1219 0.024       .   A
C1212     H1214 0.017       .   A
C1212     H1217 0.017       .   A
C1213     C1219 0.025       .   A
C1213     C1221 0.021       .   A
C1213     C1225 0.021       .   A
H1218     C1219 0.017       .   A
C1221     N1222 0.021       .   A
C1221     H1227 0.017       .   A
N1222     C1223 0.021       .   A
C1223     C1224 0.022       .   A
C1224     C1225 0.022       .   A
C1224     H1229 0.017       .   A
C1225     H1228 0.017       .   A
N1230     C1231 0.021       .   A
C1231     C1232 0.021       .   A
C1231     H1237 0.017       .   A
C1232     C1233 0.022       .   A
C1233     C1234 0.022       .   A
C1233     H1236 0.017       .   A
C1234     H1235 0.017       .   A
C1145     C1146 0.021       .   A
C1145     C1150 0.022       .   A
C1146     C1147 0.021       .   A
C1146     H1153 0.017       .   A
C1147     C1148 0.021       .   A
C1147     H1152 0.017       .   A
C1148     C1149 0.022       .   A
C1148     C1151 0.026       .   A
C1149     C1150 0.022       .   A
C1149     C1155 0.022       .   A
C1150     C1154 0.021       .   A
C1151     O1162 0.024       .   A
C1151     C1164 0.025       .   A
C1151     H1172 0.017       .   A
C1154     C1157 0.021       .   A
C1154     H1161 0.017       .   A
C1155     C1156 0.021       .   A
C1155    Br1158 0.030       .   A
C1156     C1157 0.021       .   A
C1156     O1193 0.022       .   A
C1157     H1160 0.017       .   A
C1159     H1190 0.017       .   A
C1159     H1191 0.017       .   A
C1159     H1192 0.017       .   A
C1159     O1193 0.023       .   A
O1162     C1171 0.024       .   A
C1163     C1164 0.024       .   A
C1163     H1167 0.017       .   A
C1163     H1168 0.017       .   A
C1163     C1171 0.024       .   A
C1164     H1166 0.017       .   A
C1164     H1169 0.017       .   A
C1165     C1171 0.025       .   A
C1165     C1173 0.021       .   A
C1165     C1177 0.021       .   A
H1170     C1171 0.017       .   A
C1173     N1174 0.021       .   A
C1173     H1179 0.017       .   A
N1174     C1175 0.021       .   A
C1175     C1176 0.022       .   A
C1176     C1177 0.022       .   A
C1176     H1181 0.017       .   A
C1177     H1180 0.017       .   A
N1182     C1183 0.021       .   A
C1183     C1184 0.021       .   A
C1183     H1189 0.017       .   A
C1184     C1185 0.022       .   A
C1185     C1186 0.022       .   A
C1185     H1188 0.017       .   A
C1186     H1187 0.017       .   A
C1097     C1098 0.021       .   A
C1097     C1102 0.022       .   A
C1098     C1099 0.021       .   A
C1098     H1105 0.017       .   A
C1099     C1100 0.021       .   A
C1099     H1104 0.017       .   A
C1100     C1101 0.022       .   A
C1100     C1103 0.026       .   A
C1101     C1102 0.022       .   A
C1101     C1107 0.022       .   A
C1102     C1106 0.021       .   A
C1103     O1114 0.024       .   A
C1103     C1116 0.025       .   A
C1103     H1124 0.017       .   A
C1106     C1109 0.021       .   A
C1106     H1113 0.017       .   A
C1107     C1108 0.021       .   A
C1107    Br1110 0.030       .   A
C1108     C1109 0.021       .   A
C1108     O1145 0.022       .   A
C1109     H1112 0.017       .   A
C1111     H1142 0.017       .   A
C1111     H1143 0.017       .   A
C1111     H1144 0.017       .   A
C1111     O1145 0.023       .   A
O1114     C1123 0.024       .   A
C1115     C1116 0.024       .   A
C1115     H1119 0.017       .   A
C1115     H1120 0.017       .   A
C1115     C1123 0.024       .   A
C1116     H1118 0.017       .   A
C1116     H1121 0.017       .   A
C1117     C1123 0.025       .   A
C1117     C1125 0.021       .   A
C1117     C1129 0.021       .   A
H1122     C1123 0.017       .   A
C1125     N1126 0.021       .   A
C1125     H1131 0.017       .   A
N1126     C1127 0.021       .   A
C1127     C1128 0.022       .   A
C1128     C1129 0.022       .   A
C1128     H1133 0.017       .   A
C1129     H1132 0.017       .   A
N1134     C1135 0.021       .   A
C1135     C1136 0.021       .   A
C1135     H1141 0.017       .   A
C1136     C1137 0.022       .   A
C1137     C1138 0.022       .   A
C1137     H1140 0.017       .   A
C1138     H1139 0.017       .   A
C1049     C1050 0.021       .   A
C1049     C1054 0.022       .   A
C1050     C1051 0.021       .   A
C1050     H1057 0.017       .   A
C1051     C1052 0.021       .   A
C1051     H1056 0.017       .   A
C1052     C1053 0.022       .   A
C1052     C1055 0.026       .   A
C1053     C1054 0.022       .   A
C1053     C1059 0.022       .   A
C1054     C1058 0.021       .   A
C1055     O1066 0.024       .   A
C1055     C1068 0.025       .   A
C1055     H1076 0.017       .   A
C1058     C1061 0.021       .   A
C1058     H1065 0.017       .   A
C1059     C1060 0.021       .   A
C1059    Br1062 0.030       .   A
C1060     C1061 0.021       .   A
C1060     O1097 0.022       .   A
C1061     H1064 0.017       .   A
C1063     H1094 0.017       .   A
C1063     H1095 0.017       .   A
C1063     H1096 0.017       .   A
C1063     O1097 0.023       .   A
O1066     C1075 0.024       .   A
C1067     C1068 0.024       .   A
C1067     H1071 0.017       .   A
C1067     H1072 0.017       .   A
C1067     C1075 0.024       .   A
C1068     H1070 0.017       .   A
C1068     H1073 0.017       .   A
C1069     C1075 0.025       .   A
C1069     C1077 0.021       .   A
C1069     C1081 0.021       .   A
H1074     C1075 0.017       .   A
C1077     N1078 0.021       .   A
C1077     H1083 0.017       .   A
N1078     C1079 0.021       .   A
C1079     C1080 0.022       .   A
C1080     C1081 0.022       .   A
C1080     H1085 0.017       .   A
C1081     H1084 0.017       .   A
N1086     C1087 0.021       .   A
C1087     C1088 0.021       .   A
C1087     H1093 0.017       .   A
C1088     C1089 0.022       .   A
C1089     C1090 0.022       .   A
C1089     H1092 0.017       .   A
C1090     H1091 0.017       .   A
C1001     C1002 0.021       .   A
C1001     C1006 0.022       .   A
C1002     C1003 0.021       .   A
C1002     H1009 0.017       .   A
C1003     C1004 0.021       .   A
C1003     H1008 0.017       .   A
C1004     C1005 0.022       .   A
C1004     C1007 0.026       .   A
C1005     C1006 0.022       .   A
C1005     C1011 0.022       .   A
C1006     C1010 0.021       .   A
C1007     O1018 0.024       .   A
C1007     C1020 0.025       .   A
C1007     H1028 0.017       .   A
C1010     C1013 0.021       .   A
C1010     H1017 0.017       .   A
C1011     C1012 0.021       .   A
C1011    Br1014 0.030       .   A
C1012     C1013 0.021       .   A
C1012     O1049 0.022       .   A
C1013     H1016 0.017       .   A
C1015     H1046 0.017       .   A
C1015     H1047 0.017       .   A
C1015     H1048 0.017       .   A
C1015     O1049 0.023       .   A
O1018     C1027 0.024       .   A
C1019     C1020 0.024       .   A
C1019     H1023 0.017       .   A
C1019     H1024 0.017       .   A
C1019     C1027 0.024       .   A
C1020     H1022 0.017       .   A
C1020     H1025 0.017       .   A
C1021     C1027 0.025       .   A
C1021     C1029 0.021       .   A
C1021     C1033 0.021       .   A
H1026     C1027 0.017       .   A
C1029     N1030 0.021       .   A
C1029     H1035 0.017       .   A
N1030     C1031 0.021       .   A
C1031     C1032 0.022       .   A
C1032     C1033 0.022       .   A
C1032     H1037 0.017       .   A
C1033     H1036 0.017       .   A
N1038     C1039 0.021       .   A
C1039     C1040 0.021       .   A
C1039     H1045 0.017       .   A
C1040     C1041 0.022       .   A
C1041     C1042 0.022       .   A
C1041     H1044 0.017       .   A
C1042     H1043 0.017       .   A
C953       C954 0.021       .   A
C953       C958 0.022       .   A
C954       C955 0.021       .   A
C954       H961 0.017       .   A
C955       C956 0.021       .   A
C955       H960 0.017       .   A
C956       C957 0.022       .   A
C956       C959 0.026       .   A
C957       C958 0.022       .   A
C957       C963 0.022       .   A
C958       C962 0.021       .   A
C959       O970 0.024       .   A
C959       C972 0.025       .   A
C959       H980 0.017       .   A
C962       C965 0.021       .   A
C962       H969 0.017       .   A
C963       C964 0.021       .   A
C963      Br966 0.030       .   A
C964       C965 0.021       .   A
C964      O1001 0.022       .   A
C965       H968 0.017       .   A
C967       H998 0.017       .   A
C967       H999 0.017       .   A
C967      H1000 0.017       .   A
C967      O1001 0.023       .   A
O970       C979 0.024       .   A
C971       C972 0.024       .   A
C971       H975 0.017       .   A
C971       H976 0.017       .   A
C971       C979 0.024       .   A
C972       H974 0.017       .   A
C972       H977 0.017       .   A
C973       C979 0.025       .   A
C973       C981 0.021       .   A
C973       C985 0.021       .   A
H978       C979 0.017       .   A
C981       N982 0.021       .   A
C981       H987 0.017       .   A
N982       C983 0.021       .   A
C983       C984 0.022       .   A
C984       C985 0.022       .   A
C984       H989 0.017       .   A
C985       H988 0.017       .   A
N990       C991 0.021       .   A
C991       C992 0.021       .   A
C991       H997 0.017       .   A
C992       C993 0.022       .   A
C993       C994 0.022       .   A
C993       H996 0.017       .   A
C994       H995 0.017       .   A
C905       C906 0.021       .   A
C905       C910 0.022       .   A
C906       C907 0.021       .   A
C906       H913 0.017       .   A
C907       C908 0.021       .   A
C907       H912 0.017       .   A
C908       C909 0.022       .   A
C908       C911 0.026       .   A
C909       C910 0.022       .   A
C909       C915 0.022       .   A
C910       C914 0.021       .   A
C911       O922 0.024       .   A
C911       C924 0.025       .   A
C911       H932 0.017       .   A
C914       C917 0.021       .   A
C914       H921 0.017       .   A
C915       C916 0.021       .   A
C915      Br918 0.030       .   A
C916       C917 0.021       .   A
C916       O953 0.022       .   A
C917       H920 0.017       .   A
C919       H950 0.017       .   A
C919       H951 0.017       .   A
C919       H952 0.017       .   A
C919       O953 0.023       .   A
O922       C931 0.024       .   A
C923       C924 0.024       .   A
C923       H927 0.017       .   A
C923       H928 0.017       .   A
C923       C931 0.024       .   A
C924       H926 0.017       .   A
C924       H929 0.017       .   A
C925       C931 0.025       .   A
C925       C933 0.021       .   A
C925       C937 0.021       .   A
H930       C931 0.017       .   A
C933       N934 0.021       .   A
C933       H939 0.017       .   A
N934       C935 0.021       .   A
C935       C936 0.022       .   A
C936       C937 0.022       .   A
C936       H941 0.017       .   A
C937       H940 0.017       .   A
N942       C943 0.021       .   A
C943       C944 0.021       .   A
C943       H949 0.017       .   A
C944       C945 0.022       .   A
C945       C946 0.022       .   A
C945       H948 0.017       .   A
C946       H947 0.017       .   A
C857       C858 0.021       .   A
C857       C862 0.022       .   A
C858       C859 0.021       .   A
C858       H865 0.017       .   A
C859       C860 0.021       .   A
C859       H864 0.017       .   A
C860       C861 0.022       .   A
C860       C863 0.026       .   A
C861       C862 0.022       .   A
C861       C867 0.022       .   A
C862       C866 0.021       .   A
C863       O874 0.024       .   A
C863       C876 0.025       .   A
C863       H884 0.017       .   A
C866       C869 0.021       .   A
C866       H873 0.017       .   A
C867       C868 0.021       .   A
C867      Br870 0.030       .   A
C868       C869 0.021       .   A
C868       O905 0.022       .   A
C869       H872 0.017       .   A
C871       H902 0.017       .   A
C871       H903 0.017       .   A
C871       H904 0.017       .   A
C871       O905 0.023       .   A
O874       C883 0.024       .   A
C875       C876 0.024       .   A
C875       H879 0.017       .   A
C875       H880 0.017       .   A
C875       C883 0.024       .   A
C876       H878 0.017       .   A
C876       H881 0.017       .   A
C877       C883 0.025       .   A
C877       C885 0.021       .   A
C877       C889 0.021       .   A
H882       C883 0.017       .   A
C885       N886 0.021       .   A
C885       H891 0.017       .   A
N886       C887 0.021       .   A
C887       C888 0.022       .   A
C888       C889 0.022       .   A
C888       H893 0.017       .   A
C889       H892 0.017       .   A
N894       C895 0.021       .   A
C895       C896 0.021       .   A
C895       H901 0.017       .   A
C896       C897 0.022       .   A
C897       C898 0.022       .   A
C897       H900 0.017       .   A
C898       H899 0.017       .   A
C809       C810 0.021       .   A
C809       C814 0.022       .   A
C810       C811 0.021       .   A
C810       H817 0.017       .   A
C811       C812 0.021       .   A
C811       H816 0.017       .   A
C812       C813 0.022       .   A
C812       C815 0.026       .   A
C813       C814 0.022       .   A
C813       C819 0.022       .   A
C814       C818 0.021       .   A
C815       O826 0.024       .   A
C815       C828 0.025       .   A
C815       H836 0.017       .   A
C818       C821 0.021       .   A
C818       H825 0.017       .   A
C819       C820 0.021       .   A
C819      Br822 0.030       .   A
C820       C821 0.021       .   A
C820       O857 0.022       .   A
C821       H824 0.017       .   A
C823       H854 0.017       .   A
C823       H855 0.017       .   A
C823       H856 0.017       .   A
C823       O857 0.023       .   A
O826       C835 0.024       .   A
C827       C828 0.024       .   A
C827       H831 0.017       .   A
C827       H832 0.017       .   A
C827       C835 0.024       .   A
C828       H830 0.017       .   A
C828       H833 0.017       .   A
C829       C835 0.025       .   A
C829       C837 0.021       .   A
C829       C841 0.021       .   A
H834       C835 0.017       .   A
C837       N838 0.021       .   A
C837       H843 0.017       .   A
N838       C839 0.021       .   A
C839       C840 0.022       .   A
C840       C841 0.022       .   A
C840       H845 0.017       .   A
C841       H844 0.017       .   A
N846       C847 0.021       .   A
C847       C848 0.021       .   A
C847       H853 0.017       .   A
C848       C849 0.022       .   A
C849       C850 0.022       .   A
C849       H852 0.017       .   A
C850       H851 0.017       .   A
C761       C762 0.021       .   A
C761       C766 0.022       .   A
C762       C763 0.021       .   A
C762       H769 0.017       .   A
C763       C764 0.021       .   A
C763       H768 0.017       .   A
C764       C765 0.022       .   A
C764       C767 0.026       .   A
C765       C766 0.022       .   A
C765       C771 0.022       .   A
C766       C770 0.021       .   A
C767       O778 0.024       .   A
C767       C780 0.025       .   A
C767       H788 0.017       .   A
C770       C773 0.021       .   A
C770       H777 0.017       .   A
C771       C772 0.021       .   A
C771      Br774 0.030       .   A
C772       C773 0.021       .   A
C772       O809 0.022       .   A
C773       H776 0.017       .   A
C775       H806 0.017       .   A
C775       H807 0.017       .   A
C775       H808 0.017       .   A
C775       O809 0.023       .   A
O778       C787 0.024       .   A
C779       C780 0.024       .   A
C779       H783 0.017       .   A
C779       H784 0.017       .   A
C779       C787 0.024       .   A
C780       H782 0.017       .   A
C780       H785 0.017       .   A
C781       C787 0.025       .   A
C781       C789 0.021       .   A
C781       C793 0.021       .   A
H786       C787 0.017       .   A
C789       N790 0.021       .   A
C789       H795 0.017       .   A
N790       C791 0.021       .   A
C791       C792 0.022       .   A
C792       C793 0.022       .   A
C792       H797 0.017       .   A
C793       H796 0.017       .   A
N798       C799 0.021       .   A
C799       C800 0.021       .   A
C799       H805 0.017       .   A
C800       C801 0.022       .   A
C801       C802 0.022       .   A
C801       H804 0.017       .   A
C802       H803 0.017       .   A
C713       C714 0.021       .   A
C713       C718 0.022       .   A
C714       C715 0.021       .   A
C714       H721 0.017       .   A
C715       C716 0.021       .   A
C715       H720 0.017       .   A
C716       C717 0.022       .   A
C716       C719 0.026       .   A
C717       C718 0.022       .   A
C717       C723 0.022       .   A
C718       C722 0.021       .   A
C719       O730 0.024       .   A
C719       C732 0.025       .   A
C719       H740 0.017       .   A
C722       C725 0.021       .   A
C722       H729 0.017       .   A
C723       C724 0.021       .   A
C723      Br726 0.030       .   A
C724       C725 0.021       .   A
C724       O761 0.022       .   A
C725       H728 0.017       .   A
C727       H758 0.017       .   A
C727       H759 0.017       .   A
C727       H760 0.017       .   A
C727       O761 0.023       .   A
O730       C739 0.024       .   A
C731       C732 0.024       .   A
C731       H735 0.017       .   A
C731       H736 0.017       .   A
C731       C739 0.024       .   A
C732       H734 0.017       .   A
C732       H737 0.017       .   A
C733       C739 0.025       .   A
C733       C741 0.021       .   A
C733       C745 0.021       .   A
H738       C739 0.017       .   A
C741       N742 0.021       .   A
C741       H747 0.017       .   A
N742       C743 0.021       .   A
C743       C744 0.022       .   A
C744       C745 0.022       .   A
C744       H749 0.017       .   A
C745       H748 0.017       .   A
N750       C751 0.021       .   A
C751       C752 0.021       .   A
C751       H757 0.017       .   A
C752       C753 0.022       .   A
C753       C754 0.022       .   A
C753       H756 0.017       .   A
C754       H755 0.017       .   A
C665       C666 0.021       .   A
C665       C670 0.022       .   A
C666       C667 0.021       .   A
C666       H673 0.017       .   A
C667       C668 0.021       .   A
C667       H672 0.017       .   A
C668       C669 0.022       .   A
C668       C671 0.026       .   A
C669       C670 0.022       .   A
C669       C675 0.022       .   A
C670       C674 0.021       .   A
C671       O682 0.024       .   A
C671       C684 0.025       .   A
C671       H692 0.017       .   A
C674       C677 0.021       .   A
C674       H681 0.017       .   A
C675       C676 0.021       .   A
C675      Br678 0.030       .   A
C676       C677 0.021       .   A
C676       O713 0.022       .   A
C677       H680 0.017       .   A
C679       H710 0.017       .   A
C679       H711 0.017       .   A
C679       H712 0.017       .   A
C679       O713 0.023       .   A
O682       C691 0.024       .   A
C683       C684 0.024       .   A
C683       H687 0.017       .   A
C683       H688 0.017       .   A
C683       C691 0.024       .   A
C684       H686 0.017       .   A
C684       H689 0.017       .   A
C685       C691 0.025       .   A
C685       C693 0.021       .   A
C685       C697 0.021       .   A
H690       C691 0.017       .   A
C693       N694 0.021       .   A
C693       H699 0.017       .   A
N694       C695 0.021       .   A
C695       C696 0.022       .   A
C696       C697 0.022       .   A
C696       H701 0.017       .   A
C697       H700 0.017       .   A
N702       C703 0.021       .   A
C703       C704 0.021       .   A
C703       H709 0.017       .   A
C704       C705 0.022       .   A
C705       C706 0.022       .   A
C705       H708 0.017       .   A
C706       H707 0.017       .   A
C617       C618 0.021       .   A
C617       C622 0.022       .   A
C618       C619 0.021       .   A
C618       H625 0.017       .   A
C619       C620 0.021       .   A
C619       H624 0.017       .   A
C620       C621 0.022       .   A
C620       C623 0.026       .   A
C621       C622 0.022       .   A
C621       C627 0.022       .   A
C622       C626 0.021       .   A
C623       O634 0.024       .   A
C623       C636 0.025       .   A
C623       H644 0.017       .   A
C626       C629 0.021       .   A
C626       H633 0.017       .   A
C627       C628 0.021       .   A
C627      Br630 0.030       .   A
C628       C629 0.021       .   A
C628       O665 0.022       .   A
C629       H632 0.017       .   A
C631       H662 0.017       .   A
C631       H663 0.017       .   A
C631       H664 0.017       .   A
C631       O665 0.023       .   A
O634       C643 0.024       .   A
C635       C636 0.024       .   A
C635       H639 0.017       .   A
C635       H640 0.017       .   A
C635       C643 0.024       .   A
C636       H638 0.017       .   A
C636       H641 0.017       .   A
C637       C643 0.025       .   A
C637       C645 0.021       .   A
C637       C649 0.021       .   A
H642       C643 0.017       .   A
C645       N646 0.021       .   A
C645       H651 0.017       .   A
N646       C647 0.021       .   A
C647       C648 0.022       .   A
C648       C649 0.022       .   A
C648       H653 0.017       .   A
C649       H652 0.017       .   A
N654       C655 0.021       .   A
C655       C656 0.021       .   A
C655       H661 0.017       .   A
C656       C657 0.022       .   A
C657       C658 0.022       .   A
C657       H660 0.017       .   A
C658       H659 0.017       .   A
C569       C570 0.021       .   A
C569       C574 0.022       .   A
C570       C571 0.021       .   A
C570       H577 0.017       .   A
C571       C572 0.021       .   A
C571       H576 0.017       .   A
C572       C573 0.022       .   A
C572       C575 0.026       .   A
C573       C574 0.022       .   A
C573       C579 0.022       .   A
C574       C578 0.021       .   A
C575       O586 0.024       .   A
C575       C588 0.025       .   A
C575       H596 0.017       .   A
C578       C581 0.021       .   A
C578       H585 0.017       .   A
C579       C580 0.021       .   A
C579      Br582 0.030       .   A
C580       C581 0.021       .   A
C580       O617 0.022       .   A
C581       H584 0.017       .   A
C583       H614 0.017       .   A
C583       H615 0.017       .   A
C583       H616 0.017       .   A
C583       O617 0.023       .   A
O586       C595 0.024       .   A
C587       C588 0.024       .   A
C587       H591 0.017       .   A
C587       H592 0.017       .   A
C587       C595 0.024       .   A
C588       H590 0.017       .   A
C588       H593 0.017       .   A
C589       C595 0.025       .   A
C589       C597 0.021       .   A
C589       C601 0.021       .   A
H594       C595 0.017       .   A
C597       N598 0.021       .   A
C597       H603 0.017       .   A
N598       C599 0.021       .   A
C599       C600 0.022       .   A
C600       C601 0.022       .   A
C600       H605 0.017       .   A
C601       H604 0.017       .   A
N606       C607 0.021       .   A
C607       C608 0.021       .   A
C607       H613 0.017       .   A
C608       C609 0.022       .   A
C609       C610 0.022       .   A
C609       H612 0.017       .   A
C610       H611 0.017       .   A
C521       C522 0.021       .   A
C521       C526 0.022       .   A
C522       C523 0.021       .   A
C522       H529 0.017       .   A
C523       C524 0.021       .   A
C523       H528 0.017       .   A
C524       C525 0.022       .   A
C524       C527 0.026       .   A
C525       C526 0.022       .   A
C525       C531 0.022       .   A
C526       C530 0.021       .   A
C527       O538 0.024       .   A
C527       C540 0.025       .   A
C527       H548 0.017       .   A
C530       C533 0.021       .   A
C530       H537 0.017       .   A
C531       C532 0.021       .   A
C531      Br534 0.030       .   A
C532       C533 0.021       .   A
C532       O569 0.022       .   A
C533       H536 0.017       .   A
C535       H566 0.017       .   A
C535       H567 0.017       .   A
C535       H568 0.017       .   A
C535       O569 0.023       .   A
O538       C547 0.024       .   A
C539       C540 0.024       .   A
C539       H543 0.017       .   A
C539       H544 0.017       .   A
C539       C547 0.024       .   A
C540       H542 0.017       .   A
C540       H545 0.017       .   A
C541       C547 0.025       .   A
C541       C549 0.021       .   A
C541       C553 0.021       .   A
H546       C547 0.017       .   A
C549       N550 0.021       .   A
C549       H555 0.017       .   A
N550       C551 0.021       .   A
C551       C552 0.022       .   A
C552       C553 0.022       .   A
C552       H557 0.017       .   A
C553       H556 0.017       .   A
N558       C559 0.021       .   A
C559       C560 0.021       .   A
C559       H565 0.017       .   A
C560       C561 0.022       .   A
C561       C562 0.022       .   A
C561       H564 0.017       .   A
C562       H563 0.017       .   A
C473       C474 0.021       .   A
C473       C478 0.022       .   A
C474       C475 0.021       .   A
C474       H481 0.017       .   A
C475       C476 0.021       .   A
C475       H480 0.017       .   A
C476       C477 0.022       .   A
C476       C479 0.026       .   A
C477       C478 0.022       .   A
C477       C483 0.022       .   A
C478       C482 0.021       .   A
C479       O490 0.024       .   A
C479       C492 0.025       .   A
C479       H500 0.017       .   A
C482       C485 0.021       .   A
C482       H489 0.017       .   A
C483       C484 0.021       .   A
C483      Br486 0.030       .   A
C484       C485 0.021       .   A
C484       O521 0.022       .   A
C485       H488 0.017       .   A
C487       H518 0.017       .   A
C487       H519 0.017       .   A
C487       H520 0.017       .   A
C487       O521 0.023       .   A
O490       C499 0.024       .   A
C491       C492 0.024       .   A
C491       H495 0.017       .   A
C491       H496 0.017       .   A
C491       C499 0.024       .   A
C492       H494 0.017       .   A
C492       H497 0.017       .   A
C493       C499 0.025       .   A
C493       C501 0.021       .   A
C493       C505 0.021       .   A
H498       C499 0.017       .   A
C501       N502 0.021       .   A
C501       H507 0.017       .   A
N502       C503 0.021       .   A
C503       C504 0.022       .   A
C504       C505 0.022       .   A
C504       H509 0.017       .   A
C505       H508 0.017       .   A
N510       C511 0.021       .   A
C511       C512 0.021       .   A
C511       H517 0.017       .   A
C512       C513 0.022       .   A
C513       C514 0.022       .   A
C513       H516 0.017       .   A
C514       H515 0.017       .   A
C425       C426 0.021       .   A
C425       C430 0.022       .   A
C426       C427 0.021       .   A
C426       H433 0.017       .   A
C427       C428 0.021       .   A
C427       H432 0.017       .   A
C428       C429 0.022       .   A
C428       C431 0.026       .   A
C429       C430 0.022       .   A
C429       C435 0.022       .   A
C430       C434 0.021       .   A
C431       O442 0.024       .   A
C431       C444 0.025       .   A
C431       H452 0.017       .   A
C434       C437 0.021       .   A
C434       H441 0.017       .   A
C435       C436 0.021       .   A
C435      Br438 0.030       .   A
C436       C437 0.021       .   A
C436       O473 0.022       .   A
C437       H440 0.017       .   A
C439       H470 0.017       .   A
C439       H471 0.017       .   A
C439       H472 0.017       .   A
C439       O473 0.023       .   A
O442       C451 0.024       .   A
C443       C444 0.024       .   A
C443       H447 0.017       .   A
C443       H448 0.017       .   A
C443       C451 0.024       .   A
C444       H446 0.017       .   A
C444       H449 0.017       .   A
C445       C451 0.025       .   A
C445       C453 0.021       .   A
C445       C457 0.021       .   A
H450       C451 0.017       .   A
C453       N454 0.021       .   A
C453       H459 0.017       .   A
N454       C455 0.021       .   A
C455       C456 0.022       .   A
C456       C457 0.022       .   A
C456       H461 0.017       .   A
C457       H460 0.017       .   A
N462       C463 0.021       .   A
C463       C464 0.021       .   A
C463       H469 0.017       .   A
C464       C465 0.022       .   A
C465       C466 0.022       .   A
C465       H468 0.017       .   A
C466       H467 0.017       .   A
C377       C378 0.021       .   A
C377       C382 0.022       .   A
C378       C379 0.021       .   A
C378       H385 0.017       .   A
C379       C380 0.021       .   A
C379       H384 0.017       .   A
C380       C381 0.022       .   A
C380       C383 0.026       .   A
C381       C382 0.022       .   A
C381       C387 0.022       .   A
C382       C386 0.021       .   A
C383       O394 0.024       .   A
C383       C396 0.025       .   A
C383       H404 0.017       .   A
C386       C389 0.021       .   A
C386       H393 0.017       .   A
C387       C388 0.021       .   A
C387      Br390 0.030       .   A
C388       C389 0.021       .   A
C388       O425 0.022       .   A
C389       H392 0.017       .   A
C391       H422 0.017       .   A
C391       H423 0.017       .   A
C391       H424 0.017       .   A
C391       O425 0.023       .   A
O394       C403 0.024       .   A
C395       C396 0.024       .   A
C395       H399 0.017       .   A
C395       H400 0.017       .   A
C395       C403 0.024       .   A
C396       H398 0.017       .   A
C396       H401 0.017       .   A
C397       C403 0.025       .   A
C397       C405 0.021       .   A
C397       C409 0.021       .   A
H402       C403 0.017       .   A
C405       N406 0.021       .   A
C405       H411 0.017       .   A
N406       C407 0.021       .   A
C407       C408 0.022       .   A
C408       C409 0.022       .   A
C408       H413 0.017       .   A
C409       H412 0.017       .   A
N414       C415 0.021       .   A
C415       C416 0.021       .   A
C415       H421 0.017       .   A
C416       C417 0.022       .   A
C417       C418 0.022       .   A
C417       H420 0.017       .   A
C418       H419 0.017       .   A
C329       C330 0.021       .   A
C329       C334 0.022       .   A
C330       C331 0.021       .   A
C330       H337 0.017       .   A
C331       C332 0.021       .   A
C331       H336 0.017       .   A
C332       C333 0.022       .   A
C332       C335 0.026       .   A
C333       C334 0.022       .   A
C333       C339 0.022       .   A
C334       C338 0.021       .   A
C335       O346 0.024       .   A
C335       C348 0.025       .   A
C335       H356 0.017       .   A
C338       C341 0.021       .   A
C338       H345 0.017       .   A
C339       C340 0.021       .   A
C339      Br342 0.030       .   A
C340       C341 0.021       .   A
C340       O377 0.022       .   A
C341       H344 0.017       .   A
C343       H374 0.017       .   A
C343       H375 0.017       .   A
C343       H376 0.017       .   A
C343       O377 0.023       .   A
O346       C355 0.024       .   A
C347       C348 0.024       .   A
C347       H351 0.017       .   A
C347       H352 0.017       .   A
C347       C355 0.024       .   A
C348       H350 0.017       .   A
C348       H353 0.017       .   A
C349       C355 0.025       .   A
C349       C357 0.021       .   A
C349       C361 0.021       .   A
H354       C355 0.017       .   A
C357       N358 0.021       .   A
C357       H363 0.017       .   A
N358       C359 0.021       .   A
C359       C360 0.022       .   A
C360       C361 0.022       .   A
C360       H365 0.017       .   A
C361       H364 0.017       .   A
N366       C367 0.021       .   A
C367       C368 0.021       .   A
C367       H373 0.017       .   A
C368       C369 0.022       .   A
C369       C370 0.022       .   A
C369       H372 0.017       .   A
C370       H371 0.017       .   A
C281       C282 0.021       .   A
C281       C286 0.022       .   A
C282       C283 0.021       .   A
C282       H289 0.017       .   A
C283       C284 0.021       .   A
C283       H288 0.017       .   A
C284       C285 0.022       .   A
C284       C287 0.026       .   A
C285       C286 0.022       .   A
C285       C291 0.022       .   A
C286       C290 0.021       .   A
C287       O298 0.024       .   A
C287       C300 0.025       .   A
C287       H308 0.017       .   A
C290       C293 0.021       .   A
C290       H297 0.017       .   A
C291       C292 0.021       .   A
C291      Br294 0.030       .   A
C292       C293 0.021       .   A
C292       O329 0.022       .   A
C293       H296 0.017       .   A
C295       H326 0.017       .   A
C295       H327 0.017       .   A
C295       H328 0.017       .   A
C295       O329 0.023       .   A
O298       C307 0.024       .   A
C299       C300 0.024       .   A
C299       H303 0.017       .   A
C299       H304 0.017       .   A
C299       C307 0.024       .   A
C300       H302 0.017       .   A
C300       H305 0.017       .   A
C301       C307 0.025       .   A
C301       C309 0.021       .   A
C301       C313 0.021       .   A
H306       C307 0.017       .   A
C309       N310 0.021       .   A
C309       H315 0.017       .   A
N310       C311 0.021       .   A
C311       C312 0.022       .   A
C312       C313 0.022       .   A
C312       H317 0.017       .   A
C313       H316 0.017       .   A
N318       C319 0.021       .   A
C319       C320 0.021       .   A
C319       H325 0.017       .   A
C320       C321 0.022       .   A
C321       C322 0.022       .   A
C321       H324 0.017       .   A
C322       H323 0.017       .   A
C233       C234 0.021       .   A
C233       C238 0.022       .   A
C234       C235 0.021       .   A
C234       H241 0.017       .   A
C235       C236 0.021       .   A
C235       H240 0.017       .   A
C236       C237 0.022       .   A
C236       C239 0.026       .   A
C237       C238 0.022       .   A
C237       C243 0.022       .   A
C238       C242 0.021       .   A
C239       O250 0.024       .   A
C239       C252 0.025       .   A
C239       H260 0.017       .   A
C242       C245 0.021       .   A
C242       H249 0.017       .   A
C243       C244 0.021       .   A
C243      Br246 0.030       .   A
C244       C245 0.021       .   A
C244       O281 0.022       .   A
C245       H248 0.017       .   A
C247       H278 0.017       .   A
C247       H279 0.017       .   A
C247       H280 0.017       .   A
C247       O281 0.023       .   A
O250       C259 0.024       .   A
C251       C252 0.024       .   A
C251       H255 0.017       .   A
C251       H256 0.017       .   A
C251       C259 0.024       .   A
C252       H254 0.017       .   A
C252       H257 0.017       .   A
C253       C259 0.025       .   A
C253       C261 0.021       .   A
C253       C265 0.021       .   A
H258       C259 0.017       .   A
C261       N262 0.021       .   A
C261       H267 0.017       .   A
N262       C263 0.021       .   A
C263       C264 0.022       .   A
C264       C265 0.022       .   A
C264       H269 0.017       .   A
C265       H268 0.017       .   A
N270       C271 0.021       .   A
C271       C272 0.021       .   A
C271       H277 0.017       .   A
C272       C273 0.022       .   A
C273       C274 0.022       .   A
C273       H276 0.017       .   A
C274       H275 0.017       .   A
C185       C186 0.021       .   A
C185       C190 0.022       .   A
C186       C187 0.021       .   A
C186       H193 0.017       .   A
C187       C188 0.021       .   A
C187       H192 0.017       .   A
C188       C189 0.022       .   A
C188       C191 0.026       .   A
C189       C190 0.022       .   A
C189       C195 0.022       .   A
C190       C194 0.021       .   A
C191       O202 0.024       .   A
C191       C204 0.025       .   A
C191       H212 0.017       .   A
C194       C197 0.021       .   A
C194       H201 0.017       .   A
C195       C196 0.021       .   A
C195      Br198 0.030       .   A
C196       C197 0.021       .   A
C196       O233 0.022       .   A
C197       H200 0.017       .   A
C199       H230 0.017       .   A
C199       H231 0.017       .   A
C199       H232 0.017       .   A
C199       O233 0.023       .   A
O202       C211 0.024       .   A
C203       C204 0.024       .   A
C203       H207 0.017       .   A
C203       H208 0.017       .   A
C203       C211 0.024       .   A
C204       H206 0.017       .   A
C204       H209 0.017       .   A
C205       C211 0.025       .   A
C205       C213 0.021       .   A
C205       C217 0.021       .   A
H210       C211 0.017       .   A
C213       N214 0.021       .   A
C213       H219 0.017       .   A
N214       C215 0.021       .   A
C215       C216 0.022       .   A
C216       C217 0.022       .   A
C216       H221 0.017       .   A
C217       H220 0.017       .   A
N222       C223 0.021       .   A
C223       C224 0.021       .   A
C223       H229 0.017       .   A
C224       C225 0.022       .   A
C225       C226 0.022       .   A
C225       H228 0.017       .   A
C226       H227 0.017       .   A
