data_pcu_v1-6c_Zn_1_Ch_1-61_fer_tobacco
_audit_creation_date              2021-04-07
_audit_creation_method            'tobacco_3.0'
_symmetry_space_group_name_H-M    'P1'
_symmetry_Int_Tables_number       1
_symmetry_cell_setting            triclinic
loop_
_symmetry_equiv_pos_as_xyz
  x,y,z
_cell_length_a                    40.80571997166837
_cell_length_b                    40.80571997166837
_cell_length_c                    40.80571997166837
_cell_angle_alpha                 90.0
_cell_angle_beta                  90.0
_cell_angle_gamma                 90.0
loop_
_atom_site_label
_atom_site_type_symbol
_atom_site_fract_x
_atom_site_fract_y
_atom_site_fract_z
_atom_site_charge
Zn1       Zn   -0.0274765401   -0.0274765401    0.0274765401          1.4972
Zn2       Zn   -0.0274765401    0.0274765401   -0.0274765401          1.4936
Zn3       Zn    0.0274765401    0.0274765401    0.0274765401          1.4911
Zn4       Zn    0.0274765401   -0.0274765401   -0.0274765401          1.4948
O5         O    0.0000000000    0.0000000000    0.0000000000         -2.2296
O6         O   -0.0734357831   -0.0201932474    0.0201932474         -1.1359
O7         O   -0.0201932474    0.0734357831   -0.0201932474         -1.1341
O8         O    0.0201932474    0.0201932474    0.0734357831         -1.1293
O9         O   -0.0734357831    0.0201932474   -0.0201932474         -1.1361
O10        O   -0.0201932474   -0.0201932474    0.0734357831          -1.132
O11        O    0.0201932474    0.0734357831    0.0201932474         -1.1379
O12        O    0.0734357831   -0.0201932474   -0.0201932474         -1.1318
O13        O   -0.0201932474    0.0201932474   -0.0734357831         -1.1394
O14        O    0.0734357831    0.0201932474    0.0201932474         -1.1333
O15        O    0.0201932474   -0.0201932474   -0.0734357831         -1.1379
O16        O    0.0201932474   -0.0734357831   -0.0201932474          -1.137
O17        O   -0.0201932474   -0.0734357831    0.0201932474         -1.1349
C18        C   -0.0878014161   -0.0000000000    0.0000000000           0.383
C19        C    0.0000000000    0.0878014161   -0.0000000000          0.3879
C20        C   -0.0000000000   -0.0000000000    0.0878014161          0.3775
C21        C    0.0878014161    0.0000000000   -0.0000000000          0.3813
C22        C    0.0000000000    0.0000000000   -0.0878014161          0.3926
C23        C   -0.0000000000   -0.0878014161    0.0000000000          0.3831
Zn24      Zn    1.0274765401    0.0274765401    0.4725234599          1.4972
Zn25      Zn    0.9725234599    0.0274765401    0.5274765401          1.4936
Zn26      Zn    0.9725234599   -0.0274765401    0.4725234599          1.4911
Zn27      Zn    1.0274765401   -0.0274765401    0.5274765401          1.4948
O28        O    1.0000000000    0.0000000000    0.5000000000         -2.2296
O29        O    1.0201932474    0.0734357831    0.4798067526         -1.1359
O30        O    0.9265642169    0.0201932474    0.5201932474         -1.1341
O31        O    0.9798067526   -0.0201932474    0.4265642169         -1.1293
O32        O    0.9798067526    0.0734357831    0.5201932474         -1.1361
O33        O    1.0201932474    0.0201932474    0.4265642169          -1.132
O34        O    0.9265642169   -0.0201932474    0.4798067526         -1.1379
O35        O    1.0201932474   -0.0734357831    0.5201932474         -1.1318
O36        O    0.9798067526    0.0201932474    0.5734357831         -1.1394
O37        O    0.9798067526   -0.0734357831    0.4798067526         -1.1333
O38        O    1.0201932474   -0.0201932474    0.5734357831         -1.1379
O39        O    1.0734357831   -0.0201932474    0.5201932474          -1.137
O40        O    1.0734357831    0.0201932474    0.4798067526         -1.1349
C41        C    1.0000000000    0.0878014161    0.5000000000           0.383
C42        C    0.9121985839    0.0000000000    0.5000000000          0.3879
C43        C    1.0000000000    0.0000000000    0.4121985839          0.3775
C44        C    1.0000000000   -0.0878014161    0.5000000000          0.3813
C45        C    1.0000000000    0.0000000000    0.5878014161          0.3926
C46        C    1.0878014161    0.0000000000    0.5000000000          0.3831
Zn47      Zn    1.0274765401    0.4725234599   -0.0274765401          1.4972
Zn48      Zn    0.9725234599    0.4725234599    0.0274765401          1.4936
Zn49      Zn    1.0274765401    0.5274765401    0.0274765401          1.4911
Zn50      Zn    0.9725234599    0.5274765401   -0.0274765401          1.4948
O51        O    1.0000000000    0.5000000000    0.0000000000         -2.2296
O52        O    1.0201932474    0.4265642169   -0.0201932474         -1.1359
O53        O    0.9798067526    0.4798067526    0.0734357831         -1.1341
O54        O    1.0734357831    0.5201932474    0.0201932474         -1.1293
O55        O    0.9798067526    0.4265642169    0.0201932474         -1.1361
O56        O    1.0734357831    0.4798067526   -0.0201932474          -1.132
O57        O    1.0201932474    0.5201932474    0.0734357831         -1.1379
O58        O    0.9798067526    0.5734357831   -0.0201932474         -1.1318
O59        O    0.9265642169    0.4798067526    0.0201932474         -1.1394
O60        O    1.0201932474    0.5734357831    0.0201932474         -1.1333
O61        O    0.9265642169    0.5201932474   -0.0201932474         -1.1379
O62        O    0.9798067526    0.5201932474   -0.0734357831          -1.137
O63        O    1.0201932474    0.4798067526   -0.0734357831         -1.1349
C64        C    1.0000000000    0.4121985839    0.0000000000           0.383
C65        C    1.0000000000    0.5000000000    0.0878014161          0.3879
C66        C    1.0878014161    0.5000000000    0.0000000000          0.3775
C67        C    1.0000000000    0.5878014161    0.0000000000          0.3813
C68        C    0.9121985839    0.5000000000    0.0000000000          0.3926
C69        C    1.0000000000    0.5000000000   -0.0878014161          0.3831
Zn70      Zn    0.9725234599    0.4725234599    0.5274765401          1.4972
Zn71      Zn    1.0274765401    0.4725234599    0.4725234599          1.4936
Zn72      Zn    0.9725234599    0.5274765401    0.4725234599          1.4911
Zn73      Zn    1.0274765401    0.5274765401    0.5274765401          1.4948
O74        O    1.0000000000    0.5000000000    0.5000000000         -2.2296
O75        O    0.9798067526    0.4265642169    0.5201932474         -1.1359
O76        O    1.0201932474    0.4798067526    0.4265642169         -1.1341
O77        O    0.9265642169    0.5201932474    0.4798067526         -1.1293
O78        O    1.0201932474    0.4265642169    0.4798067526         -1.1361
O79        O    0.9265642169    0.4798067526    0.5201932474          -1.132
O80        O    0.9798067526    0.5201932474    0.4265642169         -1.1379
O81        O    1.0201932474    0.5734357831    0.5201932474         -1.1318
O82        O    1.0734357831    0.4798067526    0.4798067526         -1.1394
O83        O    0.9798067526    0.5734357831    0.4798067526         -1.1333
O84        O    1.0734357831    0.5201932474    0.5201932474         -1.1379
O85        O    1.0201932474    0.5201932474    0.5734357831          -1.137
O86        O    0.9798067526    0.4798067526    0.5734357831         -1.1349
C87        C    1.0000000000    0.4121985839    0.5000000000           0.383
C88        C    1.0000000000    0.5000000000    0.4121985839          0.3879
C89        C    0.9121985839    0.5000000000    0.5000000000          0.3775
C90        C    1.0000000000    0.5878014161    0.5000000000          0.3813
C91        C    1.0878014161    0.5000000000    0.5000000000          0.3926
C92        C    1.0000000000    0.5000000000    0.5878014161          0.3831
Zn93      Zn    0.4725234599    0.9725234599   -0.0274765401          1.4972
Zn94      Zn    0.4725234599    1.0274765401    0.0274765401          1.4936
Zn95      Zn    0.5274765401    0.9725234599    0.0274765401          1.4911
Zn96      Zn    0.5274765401    1.0274765401   -0.0274765401          1.4948
O97        O    0.5000000000    1.0000000000    0.0000000000         -2.2296
O98        O    0.4265642169    0.9798067526   -0.0201932474         -1.1359
O99        O    0.4798067526    1.0201932474    0.0734357831         -1.1341
O100       O    0.5201932474    0.9265642169    0.0201932474         -1.1293
O101       O    0.4265642169    1.0201932474    0.0201932474         -1.1361
O102       O    0.4798067526    0.9265642169   -0.0201932474          -1.132
O103       O    0.5201932474    0.9798067526    0.0734357831         -1.1379
O104       O    0.5734357831    1.0201932474   -0.0201932474         -1.1318
O105       O    0.4798067526    1.0734357831    0.0201932474         -1.1394
O106       O    0.5734357831    0.9798067526    0.0201932474         -1.1333
O107       O    0.5201932474    1.0734357831   -0.0201932474         -1.1379
O108       O    0.5201932474    1.0201932474   -0.0734357831          -1.137
O109       O    0.4798067526    0.9798067526   -0.0734357831         -1.1349
C110       C    0.4121985839    1.0000000000    0.0000000000           0.383
C111       C    0.5000000000    1.0000000000    0.0878014161          0.3879
C112       C    0.5000000000    0.9121985839    0.0000000000          0.3775
C113       C    0.5878014161    1.0000000000    0.0000000000          0.3813
C114       C    0.5000000000    1.0878014161    0.0000000000          0.3926
C115       C    0.5000000000    1.0000000000   -0.0878014161          0.3831
Zn116     Zn    0.4725234599    0.9725234599    0.4725234599          1.4972
Zn117     Zn    0.5274765401    1.0274765401    0.4725234599          1.4936
Zn118     Zn    0.4725234599    1.0274765401    0.5274765401          1.4911
Zn119     Zn    0.5274765401    0.9725234599    0.5274765401          1.4948
O120       O    0.5000000000    1.0000000000    0.5000000000         -2.2296
O121       O    0.4798067526    0.9798067526    0.4265642169         -1.1359
O122       O    0.5201932474    1.0734357831    0.4798067526         -1.1341
O123       O    0.4265642169    1.0201932474    0.5201932474         -1.1293
O124       O    0.5201932474    1.0201932474    0.4265642169         -1.1361
O125       O    0.4265642169    0.9798067526    0.4798067526          -1.132
O126       O    0.4798067526    1.0734357831    0.5201932474         -1.1379
O127       O    0.5201932474    0.9798067526    0.5734357831         -1.1318
O128       O    0.5734357831    1.0201932474    0.4798067526         -1.1394
O129       O    0.4798067526    1.0201932474    0.5734357831         -1.1333
O130       O    0.5734357831    0.9798067526    0.5201932474         -1.1379
O131       O    0.5201932474    0.9265642169    0.5201932474          -1.137
O132       O    0.4798067526    0.9265642169    0.4798067526         -1.1349
C133       C    0.5000000000    1.0000000000    0.4121985839           0.383
C134       C    0.5000000000    1.0878014161    0.5000000000          0.3879
C135       C    0.4121985839    1.0000000000    0.5000000000          0.3775
C136       C    0.5000000000    1.0000000000    0.5878014161          0.3813
C137       C    0.5878014161    1.0000000000    0.5000000000          0.3926
C138       C    0.5000000000    0.9121985839    0.5000000000          0.3831
Zn139     Zn    0.4725234599    0.5274765401   -0.0274765401          1.4972
Zn140     Zn    0.4725234599    0.4725234599    0.0274765401          1.4936
Zn141     Zn    0.5274765401    0.4725234599   -0.0274765401          1.4911
Zn142     Zn    0.5274765401    0.5274765401    0.0274765401          1.4948
O143       O    0.5000000000    0.5000000000    0.0000000000         -2.2296
O144       O    0.4265642169    0.5201932474   -0.0201932474         -1.1359
O145       O    0.4798067526    0.4265642169    0.0201932474         -1.1341
O146       O    0.5201932474    0.4798067526   -0.0734357831         -1.1293
O147       O    0.4265642169    0.4798067526    0.0201932474         -1.1361
O148       O    0.4798067526    0.5201932474   -0.0734357831          -1.132
O149       O    0.5201932474    0.4265642169   -0.0201932474         -1.1379
O150       O    0.5734357831    0.5201932474    0.0201932474         -1.1318
O151       O    0.4798067526    0.4798067526    0.0734357831         -1.1394
O152       O    0.5734357831    0.4798067526   -0.0201932474         -1.1333
O153       O    0.5201932474    0.5201932474    0.0734357831         -1.1379
O154       O    0.5201932474    0.5734357831    0.0201932474          -1.137
O155       O    0.4798067526    0.5734357831   -0.0201932474         -1.1349
C156       C    0.4121985839    0.5000000000    0.0000000000           0.383
C157       C    0.5000000000    0.4121985839    0.0000000000          0.3879
C158       C    0.5000000000    0.5000000000   -0.0878014161          0.3775
C159       C    0.5878014161    0.5000000000    0.0000000000          0.3813
C160       C    0.5000000000    0.5000000000    0.0878014161          0.3926
C161       C    0.5000000000    0.5878014161    0.0000000000          0.3831
Zn162     Zn    0.5274765401    0.5274765401    0.4725234599          1.4972
Zn163     Zn    0.4725234599    0.5274765401    0.5274765401          1.4936
Zn164     Zn    0.4725234599    0.4725234599    0.4725234599          1.4911
Zn165     Zn    0.5274765401    0.4725234599    0.5274765401          1.4948
O166       O    0.5000000000    0.5000000000    0.5000000000         -2.2296
O167       O    0.5201932474    0.5734357831    0.4798067526         -1.1359
O168       O    0.4265642169    0.5201932474    0.5201932474         -1.1341
O169       O    0.4798067526    0.4798067526    0.4265642169         -1.1293
O170       O    0.4798067526    0.5734357831    0.5201932474         -1.1361
O171       O    0.5201932474    0.5201932474    0.4265642169          -1.132
O172       O    0.4265642169    0.4798067526    0.4798067526         -1.1379
O173       O    0.5201932474    0.4265642169    0.5201932474         -1.1318
O174       O    0.4798067526    0.5201932474    0.5734357831         -1.1394
O175       O    0.4798067526    0.4265642169    0.4798067526         -1.1333
O176       O    0.5201932474    0.4798067526    0.5734357831         -1.1379
O177       O    0.5734357831    0.4798067526    0.5201932474          -1.137
O178       O    0.5734357831    0.5201932474    0.4798067526         -1.1349
C179       C    0.5000000000    0.5878014161    0.5000000000           0.383
C180       C    0.4121985839    0.5000000000    0.5000000000          0.3879
C181       C    0.5000000000    0.5000000000    0.4121985839          0.3775
C182       C    0.5000000000    0.4121985839    0.5000000000          0.3813
C183       C    0.5000000000    0.5000000000    0.5878014161          0.3926
C184       C    0.5878014161    0.5000000000    0.5000000000          0.3831
C1036      C    0.5000000000    0.5000000000   -0.1255412232         -0.3761
C1037      C    0.5000966641    0.4699552491   -0.1394047438         -0.3811
C1038      C    0.5030592402    0.4675364557   -0.1720036668         -0.3859
C1039      C    0.5058248185    0.4935413028   -0.1919959060         -0.3858
C1040      C    0.5042573680    0.5233940575   -0.1781429750         -0.3794
C1041      C    0.5014358033    0.5260622126   -0.1454889912         -0.3747
C1042      C    0.5172224376    0.4889743221   -0.2280476870          0.6012
H1043      H    0.5047089316    0.4430167667   -0.1819340446          0.6086
C1044      C    0.5004055549    0.4377650688   -0.1201696435          -0.385
H1045      H    0.5010414766    0.5505801764   -0.1348852417         -0.3704
N1046      N    0.5070446432    0.5509658660   -0.1959207739          -0.379
H1047      H    0.5205807676    0.5504453431   -0.2169163772          0.6074
H1048      H    0.4863900345    0.5638194389   -0.2013227622         -0.3586
O1049      O    0.4970924322    0.4975666120   -0.2568554850         -0.3807
C1050      C    0.5342796330    0.4564644164   -0.2736876032          0.5785
C1051      C    0.5278080033    0.4541268020   -0.2370976021          0.5861
C1052      C    0.5082548617    0.4855534552   -0.3209548222           0.604
H1053      H    0.5076321872    0.4368981469   -0.2332884963          0.6023
H1054      H    0.5604655840    0.4559308704   -0.2790271610          0.5542
H1055      H    0.5226151497    0.4356960050   -0.2859347265          0.5856
H1056      H    0.5494030287    0.4461252340   -0.2236387967          0.5659
H1057      H    0.5386655937    0.5080300356   -0.2841069589          0.5813
C1058      C    0.5192470365    0.4895137303   -0.2843809357          0.5964
H1059      H    0.5392195213    0.5042186584   -0.2298351045          0.5831
O1060      O    0.5054522859    0.5141083530   -0.3418433481         -0.3905
C1061      C    0.4781202498    0.4697377438   -0.3678507649         -0.3731
C1062      C    0.4777933752    0.4657975052   -0.3302466668         -0.3714
H1063      H    0.4794734439    0.4400825070   -0.3230892755         -0.3762
H1064      H    0.4533826535    0.4727405820   -0.3776187599         -0.3505
H1065      H    0.4893990977    0.4483439618   -0.3794079117         -0.3871
H1066      H    0.4557559733    0.4767830891   -0.3197285241         -0.3491
H1067      H    0.5239370828    0.4919051694   -0.3834540509          0.5872
C1068      C    0.5000000000    0.5000000000   -0.3744587768         -0.3892
H1069      H    0.5290067627    0.4722148482   -0.3315262384          0.5825
H1070      H    0.5041245268    0.4164434271   -0.1359395794          0.6078
H1071      H    0.4772931716    0.4339689425   -0.1072152581         -0.3636
H1072      H    0.5203393422    0.4376080243   -0.1022810909          0.5977
C999       C    0.5000000000    0.5000000000    0.1255412232         -0.3761
C1000      C    0.4703335143    0.5047535278    0.1394047438         -0.3811
C1001      C    0.4684032746    0.5080552839    0.1720036668         -0.3859
C1002      C    0.4945224559    0.5067557229    0.1919959060         -0.3858
C1003      C    0.5237712414    0.5005789586    0.1781429750         -0.3794
C1004      C    0.5259696896    0.4973778488    0.1454889912         -0.3747
C1005      C    0.4917777425    0.5187235791    0.2280476870          0.6012
H1006      H    0.4444358217    0.5134864748    0.1819340446          0.6086
C1007      C    0.4385804430    0.5100493361    0.1201696435          -0.385
H1008      H    0.5501300655    0.4931871112    0.1348852417         -0.3704
N1009      N    0.5514418014    0.4990578960    0.1959207739          -0.379
H1010      H    0.5530261655    0.5125110517    0.2169163772          0.6074
H1011      H    0.5609377407    0.4766602547    0.2013227622         -0.3586
O1012      O    0.4971452556    0.4975048523    0.2568554850         -0.3807
C1013      C    0.4623054100    0.5406147530    0.2736876032          0.5785
C1014      C    0.4589927216    0.5345837889    0.2370976021          0.5861
C1015      C    0.4870079368    0.5103947916    0.3209548222           0.604
H1016      H    0.4388443949    0.5173229939    0.2332884963          0.6023
H1017      H    0.4658380930    0.5665668021    0.2790271610          0.5542
H1018      H    0.4399796942    0.5323111694    0.2859347265          0.5856
H1019      H    0.4544359194    0.5571582384    0.2236387967          0.5659
H1020      H    0.5139275201    0.5369531296    0.2841069589          0.5813
C1021      C    0.4926245153    0.5206400700    0.2843809357          0.5964
H1022      H    0.5102481062    0.5380912621    0.2298351045          0.5831
O1023      O    0.5147830686    0.5031990515    0.3418433481         -0.3905
C1024      C    0.4667114929    0.4830765573    0.3678507649         -0.3731
C1025      C    0.4627682192    0.4833645157    0.3302466668         -0.3714
H1026      H    0.4376246196    0.4890110331    0.3230892755         -0.3762
H1027      H    0.4658427931    0.4581725200    0.3776187599         -0.3505
H1028      H    0.4473250215    0.4975358465    0.3794079117         -0.3871
H1029      H    0.4702043724    0.4598904073    0.3197285241         -0.3491
H1030      H    0.4957141672    0.5249026475    0.3834540509          0.5872
C1031      C    0.5000000000    0.5000000000    0.3744587768         -0.3892
H1032      H    0.4770479120    0.5329637468    0.3315262384          0.5825
H1033      H    0.4180931831    0.5170289733    0.1359395794          0.6078
H1034      H    0.4312469540    0.4878049486    0.1072152581         -0.3636
H1035      H    0.4415157616    0.5297664465    0.1022810909          0.5977
C962       C    0.5000000000    0.8744587768    0.5000000000         -0.3761
C963       C    0.5218313945    0.8605952562    0.4793581344         -0.3811
C964       C    0.5215658353    0.8279963332    0.4755427842         -0.3859
C965       C    0.5007190968    0.8080040940    0.4913324640         -0.3858
C966       C    0.4800346717    0.8218570250    0.5129148277         -0.3794
C967       C    0.4800219386    0.8545110088    0.5167981403         -0.3747
C968       C    0.4962437955    0.7719523130    0.4798985359          0.6012
H969       H    0.5383070411    0.8180659554    0.4575519904          0.6086
C970       C    0.5450811367    0.8798303565    0.4570926318          -0.385
H971       H    0.4624224514    0.8651147583    0.5338728027         -0.3704
N972       N    0.4580310257    0.8040792261    0.5297615808          -0.379
H973       H    0.4491423175    0.7830836228    0.5195396204          0.6074
H974       H    0.4628049832    0.7986772378    0.5536160673         -0.3586
O975       O    0.5037643210    0.7431445150    0.5004530064         -0.3807
C976       C    0.5082591264    0.7263123968    0.4452074174          0.5785
C977       C    0.5143939307    0.7629023979    0.4483236021          0.5861
C978       C    0.5048770645    0.6790451778    0.4840921516           0.604
H979       H    0.5407649568    0.7667115037    0.4512320551          0.6023
H980       H    0.4907186692    0.7209728390    0.4257569402          0.5542
H981       H    0.5313823953    0.7140652735    0.4394888933          0.5856
H982       H    0.5054397800    0.7763612033    0.4271058408          0.5659
H983       H    0.4676734125    0.7158930411    0.4773173779          0.5813
C984       C    0.4944644299    0.7156190643    0.4787922720          0.5964
H985       H    0.4700719966    0.7701648955    0.4743040365          0.5831
O986       O    0.4859842402    0.6581566519    0.5056860815         -0.3905
C987       C    0.5370370040    0.6321492351    0.4952263268         -0.3731
C988       C    0.5401325850    0.6697533332    0.4927667119         -0.3714
H989       H    0.5577241715    0.6769107245    0.4739353591         -0.3762
H990       H    0.5517860842    0.6223812401    0.5153119023         -0.3505
H991       H    0.5449069377    0.6205920883    0.4723577793         -0.3871
H992       H    0.5472147810    0.6802714759    0.5163500246         -0.3491
H993       H    0.4895102330    0.6165459491    0.4770114158          0.5872
C994       C    0.5000000000    0.6255412232    0.5000000000         -0.3892
H995       H    0.5003900001    0.6684737616    0.4598346562          0.5825
H996       H    0.5580746822    0.8640604206    0.4397833588          0.6078
H997       H    0.5636727496    0.8927847419    0.4713385002         -0.3636
H998       H    0.5315470824    0.8977189091    0.4424567200          0.5977
C925       C    0.5000000000    1.1255412232    0.5000000000         -0.3761
C926       C    0.5296605054    1.1394047438    0.5047907018         -0.3811
C927       C    0.5315866058    1.1720036668    0.5080948743         -0.3859
C928       C    0.5054690736    1.1919959060    0.5067625820         -0.3858
C929       C    0.4762280518    1.1781429750    0.5005491683         -0.3794
C930       C    0.4740336168    1.1454889912    0.4973453059         -0.3747
C931       C    0.5081987869    1.2280476870    0.5187338684          0.6012
H932       H    0.5555472336    1.1819340446    0.5135560966          0.6086
C933       C    0.5614069150    1.1201696435    0.5101262985          -0.385
H934       H    0.4498785117    1.1348852417    0.4931242941         -0.3704
N935       N    0.4485594196    1.1959207739    0.4989934304          -0.379
H936       H    0.4469581975    1.2169163772    0.5124445901          0.6074
H937       H    0.4390915563    1.2013227622    0.4765839065         -0.3586
O938       O    0.5028578690    1.2568554850    0.4975084318         -0.3807
C939       C    0.5376436625    1.2736876032    0.5406619595          0.5785
C940       C    0.5409639062    1.2370976021    0.5346351516          0.5861
C941       C    0.5129790263    1.3209548222    0.5104110649           0.604
H942       H    0.5611338481    1.2332884963    0.5173996198          0.6023
H943       H    0.5340784594    1.2790271610    0.5666095611          0.5542
H944       H    0.5599797666    1.2859347265    0.5323863608          0.5856
H945       H    0.5454924148    1.2236387967    0.5572152939          0.5659
H946       H    0.4860261816    1.2841069589    0.5369356468          0.5813
C947       C    0.5073496130    1.2843809357    0.5206492967          0.5964
H948       H    0.4897041663    1.2298351045    0.5380783894          0.5831
O949       O    0.4852129340    1.3418433481    0.5031805230         -0.3905
C950       C    0.5333096892    1.3678507649    0.4831182873         -0.3731
C951       C    0.5372525989    1.3302466668    0.4834111872         -0.3714
H952       H    0.5623891027    1.3230892755    0.4890892099         -0.3762
H953       H    0.5342095978    1.3776187599    0.4582153583         -0.3505
H954       H    0.5526780252    1.3794079117    0.4976018601         -0.3871
H955       H    0.5298458691    1.3197285241    0.4599277784         -0.3491
H956       H    0.5042546217    1.3834540509    0.5249079989          0.5872
C957       C    0.5000000000    1.3744587768    0.5000000000         -0.3892
H958       H    0.5229107601    1.3315262384    0.5329924842          0.5825
H959       H    0.5818854121    1.1359395794    0.5171316047          0.6078
H960       H    0.5687682747    1.1072152581    0.4878911187         -0.3636
H961       H    0.5584468894    1.1022810909    0.5298397150          0.5977
C888       C    0.5000000000    0.8744587768    0.0000000000         -0.3761
C889       C    0.4743520719    0.8605952562   -0.0156486481         -0.3811
C890       C    0.4707401627    0.8279963332   -0.0143910590         -0.3859
C891       C    0.4914475725    0.8080040940    0.0015809063         -0.3858
C892       C    0.5177020078    0.8218570250    0.0158759575         -0.3794
C893       C    0.5214525349    0.8545110088    0.0148690686         -0.3747
C894       C    0.4815889974    0.7719523130    0.0089001638          0.6012
H895       H    0.4489862951    0.8180659554   -0.0258237262          0.6086
C896       C    0.4467651772    0.8798303565   -0.0322398010          -0.385
H897       H    0.5425476416    0.8651147583    0.0273703693         -0.3704
N898       N    0.5397330663    0.8040792261    0.0326868466          -0.379
H899       H    0.5322022730    0.7830836228    0.0439467206          0.6074
H900       H    0.5614984219    0.7986772378    0.0218196255         -0.3586
O901       O    0.4994491802    0.7431445150   -0.0037512565         -0.3807
C902       C    0.4449605317    0.7263123968    0.0064107103          0.5785
C903       C    0.4463574005    0.7629023979   -0.0003268849          0.5861
C904       C    0.4833698062    0.6790451778   -0.0005310857           0.604
H905       H    0.4422428214    0.7667115037   -0.0265368135          0.6023
H906       H    0.4307953743    0.7209728390    0.0284410760          0.5542
H907       H    0.4333737634    0.7140652735   -0.0144011586          0.5856
H908       H    0.4282334332    0.7763612033    0.0138819864          0.5659
H909       H    0.4865966198    0.7158930411    0.0371464534          0.5813
C910       C    0.4809885076    0.7156190643    0.0109074938          0.5964
H911       H    0.4830594007    0.7701648955    0.0356228021          0.5831
O912       O    0.5091651965    0.6581566519    0.0120321328         -0.3905
C913       C    0.4856733005    0.6321492351   -0.0344858420         -0.3731
C914       C    0.4824874706    0.6697533332   -0.0368273831         -0.3714
H915       H    0.4596993268    0.6769107245   -0.0488600165         -0.3762
H916       H    0.5011838904    0.6223812401   -0.0539893626         -0.3505
H917       H    0.4615409322    0.6205920883   -0.0360780476         -0.3871
H918       H    0.5033853608    0.6802714759   -0.0498507591         -0.3491
H919       H    0.4805703077    0.6165459491    0.0161554100          0.5872
C920       C    0.5000000000    0.6255412232    0.0000000000         -0.3892
H921       H    0.4611402738    0.6684737616    0.0101650688          0.5825
H922       H    0.4266525137    0.8640604206   -0.0402350450          0.6078
H923       H    0.4556322945    0.8927847419   -0.0539185248         -0.3636
H924       H    0.4361943325    0.8977189091   -0.0153389790          0.5977
C851       C    0.5000000000    1.1255412232    0.0000000000         -0.3761
C852       C    0.4763005208    1.1394047438   -0.0184670270         -0.3811
C853       C    0.4762012108    1.1720036668   -0.0222903184         -0.3859
C854       C    0.4984580309    1.1919959060   -0.0085595334         -0.3858
C855       C    0.5211054062    1.1781429750    0.0109530332         -0.3794
C856       C    0.5214882193    1.1454889912    0.0148174521         -0.3747
C857       C    0.5018231320    1.2280476870   -0.0203679680          0.6012
H858       H    0.4578214324    1.1819340446   -0.0386035148          0.6086
C859       C    0.4510343944    1.1201696435   -0.0384151090          -0.385
H860       H    0.5406350504    1.1348852417    0.0301368810         -0.3704
N861       N    0.5446146215    1.1959207739    0.0256258081          -0.379
H862       H    0.5524885547    1.2169163772    0.0146031594          0.6074
H863       H    0.5421360896    1.2013227622    0.0498267187         -0.3586
O864       O    0.4962959956    1.2568554850    0.0008097402         -0.3807
C865       C    0.4865559207    1.2736876032   -0.0537559021          0.5785
C866       C    0.4807460664    1.2370976021   -0.0500691659          0.5861
C867       C    0.4936288833    1.3209548222   -0.0153705651           0.604
H868       H    0.4547723226    1.2332884963   -0.0446604002          0.6023
H869       H    0.5021625967    1.2790271610   -0.0747896932          0.5542
H870       H    0.4629928672    1.2859347265   -0.0572443962          0.5856
H871       H    0.4876370793    1.2236387967   -0.0720437912          0.5659
H872       H    0.5300174155    1.2841069589   -0.0256605606          0.5813
C873       C    0.5034889529    1.2843809357   -0.0216387956          0.5964
H874       H    0.5273425351    1.2298351045   -0.0284315618          0.5831
O875       O    0.5144939172    1.3418433481    0.0043242815         -0.3905
C876       C    0.4626766169    1.3678507649   -0.0012217572         -0.3731
C877       C    0.4593606913    1.3302466668   -0.0033751185         -0.3714
H878       H    0.4400542860    1.3230892755   -0.0204439930         -0.3762
H879       H    0.4499091436    1.3776187599    0.0201781806         -0.3505
H880       H    0.4526627980    1.3794079117   -0.0232360650         -0.3871
H881       H    0.4545585830    1.3197285241    0.0207758627         -0.3491
H882       H    0.5082508517    1.3834540509   -0.0238837531          0.5872
C883       C    0.5000000000    1.3744587768    0.0000000000         -0.3892
H884       H    0.4957834155    1.3315262384   -0.0399453046          0.5825
H885       H    0.4364501730    1.1359395794   -0.0544070959          0.6078
H886       H    0.4338852712    1.1072152581   -0.0224620401         -0.3636
H887       H    0.4631118083    1.1022810909   -0.0542743843          0.5977
C814       C    0.5000000000    1.0000000000   -0.1255412232         -0.3761
C815       C    0.4999033359    1.0300447509   -0.1394047438         -0.3811
C816       C    0.4969407598    1.0324635443   -0.1720036668         -0.3859
C817       C    0.4941751815    1.0064586972   -0.1919959060         -0.3858
C818       C    0.4957426320    0.9766059425   -0.1781429750         -0.3794
C819       C    0.4985641967    0.9739377874   -0.1454889912         -0.3747
C820       C    0.4827775624    1.0110256779   -0.2280476870          0.6012
H821       H    0.4952910684    1.0569832333   -0.1819340446          0.6086
C822       C    0.4995944451    1.0622349312   -0.1201696435          -0.385
H823       H    0.4989585234    0.9494198236   -0.1348852417         -0.3704
N824       N    0.4929553568    0.9490341340   -0.1959207739          -0.379
H825       H    0.4794192324    0.9495546569   -0.2169163772          0.6074
H826       H    0.5136099655    0.9361805611   -0.2013227622         -0.3586
O827       O    0.5029075678    1.0024333880   -0.2568554850         -0.3807
C828       C    0.4657203670    1.0435355836   -0.2736876032          0.5785
C829       C    0.4721919967    1.0458731980   -0.2370976021          0.5861
C830       C    0.4917451383    1.0144465448   -0.3209548222           0.604
H831       H    0.4923678128    1.0631018531   -0.2332884963          0.6023
H832       H    0.4395344160    1.0440691296   -0.2790271610          0.5542
H833       H    0.4773848503    1.0643039950   -0.2859347265          0.5856
H834       H    0.4505969713    1.0538747660   -0.2236387967          0.5659
H835       H    0.4613344063    0.9919699644   -0.2841069589          0.5813
C836       C    0.4807529635    1.0104862697   -0.2843809357          0.5964
H837       H    0.4607804787    0.9957813416   -0.2298351045          0.5831
O838       O    0.4945477141    0.9858916470   -0.3418433481         -0.3905
C839       C    0.5218797502    1.0302622562   -0.3678507649         -0.3731
C840       C    0.5222066248    1.0342024948   -0.3302466668         -0.3714
H841       H    0.5205265561    1.0599174930   -0.3230892755         -0.3762
H842       H    0.5466173465    1.0272594180   -0.3776187599         -0.3505
H843       H    0.5106009023    1.0516560382   -0.3794079117         -0.3871
H844       H    0.5442440267    1.0232169109   -0.3197285241         -0.3491
H845       H    0.4760629172    1.0080948306   -0.3834540509          0.5872
C846       C    0.5000000000    1.0000000000   -0.3744587768         -0.3892
H847       H    0.4709932373    1.0277851518   -0.3315262384          0.5825
H848       H    0.4958754732    1.0835565729   -0.1359395794          0.6078
H849       H    0.5227068284    1.0660310575   -0.1072152581         -0.3636
H850       H    0.4796606578    1.0623919757   -0.1022810909          0.5977
C777       C    0.5000000000    1.0000000000    0.1255412232         -0.3761
C778       C    0.4931217503    0.9707530158    0.1394047438         -0.3811
C779       C    0.4896895243    0.9690656381    0.1720036668         -0.3859
C780       C    0.4928672451    0.9950233457    0.1919959060         -0.3858
C781       C    0.5011349440    1.0237511897    0.1781429750         -0.3794
C782       C    0.5044861060    1.0257133294    0.1454889912         -0.3747
C783       C    0.4807327618    0.9931478863    0.2280476870          0.6012
H784       H    0.4825459108    0.9455516971    0.1819340446          0.6086
C785       C    0.4855523185    0.9394639312    0.1201696435          -0.385
H786       H    0.5104063865    1.0495090501    0.1348852417         -0.3704
N787       N    0.5046453470    1.0512402893    0.1959207739          -0.379
H788       H    0.4913412748    1.0537896562    0.2169163772          0.6074
H789       H    0.5276688538    1.0590981089    0.2013227622         -0.3586
O790       O    0.5022830193    0.9969729304    0.2568554850         -0.3807
C791       C    0.4567753758    0.9653290880    0.2736876032          0.5785
C792       C    0.4625520367    0.9615905561    0.2370976021          0.5861
C793       C    0.4886963106    0.9877904954    0.3209548222           0.604
H794       H    0.4783165718    0.9402511666    0.2332884963          0.6023
H795       H    0.4311452327    0.9707220895    0.2790271610          0.5542
H796       H    0.4634491188    0.9424632130    0.2859347265          0.5856
H797       H    0.4397079795    0.9586717782    0.2236387967          0.5659
H798       H    0.4641461656    1.0165533127    0.2841069589          0.5813
C799       C    0.4788822485    0.9941305166    0.2843809357          0.5964
H800       H    0.4627459376    1.0129654451    0.2298351045          0.5831
O801       O    0.4978741811    1.0149751107    0.3418433481         -0.3905
C802       C    0.5144814859    0.9655788701    0.3678507649         -0.3731
C803       C    0.5139102157    0.9616665846    0.3302466668         -0.3714
H804       H    0.5064671095    0.9369950639    0.3230892755         -0.3762
H805       H    0.5392582441    0.9629184259    0.3776187599         -0.3505
H806       H    0.4986632273    0.9472843623    0.3794079117         -0.3871
H807       H    0.5378590131    0.9673924245    0.3197285241         -0.3491
H808       H    0.4748533131    0.9975192029    0.3834540509          0.5872
C809       C    0.5000000000    1.0000000000    0.3744587768         -0.3892
H810       H    0.4654685038    0.9794821367    0.3315262384          0.5825
H811       H    0.4771149826    0.9195326863    0.1359395794          0.6078
H812       H    0.5072106355    0.9305470854    0.1072152581         -0.3636
H813       H    0.4660978835    0.9438119766    0.1022810909          0.5977
C740       C    0.8744587768    0.5000000000    0.5000000000         -0.3761
C741       C    0.8605952562    0.4767041945    0.5189737146         -0.3811
C742       C    0.8279963332    0.4729553852    0.5182161870         -0.3859
C743       C    0.8080040940    0.4913123394    0.4995903252         -0.3858
C744       C    0.8218570250    0.5153921518    0.4818757408         -0.3794
C745       C    0.8545110088    0.5192443983    0.4823661238         -0.3747
C746       C    0.7719523130    0.4805544274    0.4936716798          0.6012
H747       H    0.8180659554    0.4529476539    0.5324859915          0.6086
C748       C    0.8798303565    0.4516147107    0.5391435168          -0.385
H749       H    0.8651147583    0.5384548902    0.4671266014         -0.3704
N750       N    0.8040792261    0.5349471290    0.4622396415          -0.379
H751       H    0.7830836228    0.5259626467    0.4521017577          0.6074
H752       H    0.7986772378    0.5579822758    0.4700632728         -0.3586
O753       O    0.7431445150    0.4999615942    0.5037912864         -0.3807
C754       C    0.7263123968    0.4445992117    0.5010922154          0.5785
C755       C    0.7629023979    0.4468944972    0.5075789785          0.5861
C756       C    0.6790451778    0.4835944386    0.5027754196           0.604
H757       H    0.7667115037    0.4463625856    0.5341045734          0.6023
H758       H    0.7209728390    0.4275846280    0.4811800925          0.5542
H759       H    0.7140652735    0.4359336867    0.5232799544          0.5856
H760       H    0.7763612033    0.4270153262    0.4959519078          0.5659
H761       H    0.7158930411    0.4816957613    0.4650076516          0.5813
C762       C    0.7156190643    0.4796879661    0.4917640093          0.5964
H763       H    0.7701648955    0.4783971154    0.4669957078          0.5831
O764       O    0.6581566519    0.5074536521    0.4868388406         -0.3905
C765       C    0.6321492351    0.4904691077    0.5361066436         -0.3731
C766       C    0.6697533332    0.4876292408    0.5388575495         -0.3714
H767       H    0.6769107245    0.4666778812    0.5538616921         -0.3762
H768       H    0.6223812401    0.5084750088    0.5533331707         -0.3505
H769       H    0.6205920883    0.4667738194    0.5409480933         -0.3871
H770       H    0.6802714759    0.5100965102    0.5489348478         -0.3491
H771       H    0.6165459491    0.4785638343    0.4866208738          0.5872
C772       C    0.6255412232    0.5000000000    0.5000000000         -0.3892
H773       H    0.6684737616    0.4601225165    0.4951840625          0.5825
H774       H    0.8640604206    0.4327681962    0.5497855115          0.6078
H775       H    0.8927847419    0.4633323754    0.5594237824         -0.3636
H776       H    0.8977189091    0.4388551786    0.5238276792          0.5977
C703       C    1.1255412232    0.5000000000    0.5000000000         -0.3761
C704       C    1.1394047438    0.5189737146    0.4767041945         -0.3811
C705       C    1.1720036668    0.5182161870    0.4729553852         -0.3859
C706       C    1.1919959060    0.4995903252    0.4913123394         -0.3858
C707       C    1.1781429750    0.4818757408    0.5153921518         -0.3794
C708       C    1.1454889912    0.4823661238    0.5192443983         -0.3747
C709       C    1.2280476870    0.4936716798    0.4805544274          0.6012
H710       H    1.1819340446    0.5324859915    0.4529476539          0.6086
C711       C    1.1201696435    0.5391435168    0.4516147107          -0.385
H712       H    1.1348852417    0.4671266014    0.5384548902         -0.3704
N713       N    1.1959207739    0.4622396415    0.5349471290          -0.379
H714       H    1.2169163772    0.4521017577    0.5259626467          0.6074
H715       H    1.2013227622    0.4700632728    0.5579822758         -0.3586
O716       O    1.2568554850    0.5037912864    0.4999615942         -0.3807
C717       C    1.2736876032    0.5010922154    0.4445992117          0.5785
C718       C    1.2370976021    0.5075789785    0.4468944972          0.5861
C719       C    1.3209548222    0.5027754196    0.4835944386           0.604
H720       H    1.2332884963    0.5341045734    0.4463625856          0.6023
H721       H    1.2790271610    0.4811800925    0.4275846280          0.5542
H722       H    1.2859347265    0.5232799544    0.4359336867          0.5856
H723       H    1.2236387967    0.4959519078    0.4270153262          0.5659
H724       H    1.2841069589    0.4650076516    0.4816957613          0.5813
C725       C    1.2843809357    0.4917640093    0.4796879661          0.5964
H726       H    1.2298351045    0.4669957078    0.4783971154          0.5831
O727       O    1.3418433481    0.4868388406    0.5074536521         -0.3905
C728       C    1.3678507649    0.5361066436    0.4904691077         -0.3731
C729       C    1.3302466668    0.5388575495    0.4876292408         -0.3714
H730       H    1.3230892755    0.5538616921    0.4666778812         -0.3762
H731       H    1.3776187599    0.5533331707    0.5084750088         -0.3505
H732       H    1.3794079117    0.5409480933    0.4667738194         -0.3871
H733       H    1.3197285241    0.5489348478    0.5100965102         -0.3491
H734       H    1.3834540509    0.4866208738    0.4785638343          0.5872
C735       C    1.3744587768    0.5000000000    0.5000000000         -0.3892
H736       H    1.3315262384    0.4951840625    0.4601225165          0.5825
H737       H    1.1359395794    0.5497855115    0.4327681962          0.6078
H738       H    1.1072152581    0.5594237824    0.4633323754         -0.3636
H739       H    1.1022810909    0.5238276792    0.4388551786          0.5977
C666       C    0.6255412232    0.5000000000    0.0000000000         -0.3761
C667       C    0.6394047438    0.5038968253    0.0297911254         -0.3811
C668       C    0.6720036668    0.5071415981    0.0318156916         -0.3859
C669       C    0.6919959060    0.5065951034    0.0056699111         -0.3858
C670       C    0.6781429750    0.5012635979   -0.0237446926         -0.3794
C671       C    0.6454889912    0.4981271571   -0.0260344563         -0.3747
C672       C    0.7280476870    0.5184789126    0.0087582943          0.6012
H673       H    0.6819340446    0.5118800016    0.0559296744          0.6086
C674       C    0.6201696435    0.5082755888    0.0616835939          -0.385
H675       H    0.6348852417    0.4946342503   -0.0503055429         -0.3704
N676       N    0.6959207739    0.5005403907   -0.0514475896          -0.379
H677       H    0.7169163772    0.5140336091   -0.0526436934          0.6074
H678       H    0.7013227622    0.4784256374   -0.0615848912         -0.3586
O679       O    0.7568554850    0.4974236393    0.0027816709         -0.3807
C680       C    0.7736876032    0.5395118635    0.0388491045          0.5785
C681       C    0.7370976021    0.5333879604    0.0419866579          0.5861
C682       C    0.8209548222    0.5100161585    0.0132861569           0.604
H683       H    0.7332884963    0.5155538319    0.0616293150          0.6023
H684       H    0.7790271610    0.5655549202    0.0360655995          0.5542
H685       H    0.7859347265    0.5305684948    0.0609263153          0.5856
H686       H    0.7236387967    0.5558217512    0.0471919670          0.5659
H687       H    0.7841069589    0.5373390588   -0.0128570717          0.5813
C688       C    0.7843809357    0.5204190046    0.0079670895          0.5964
H689       H    0.7298351045    0.5383707102   -0.0091463942          0.5831
O690       O    0.8418433481    0.5036236424   -0.0146847629         -0.3905
C691       C    0.8678507649    0.4821244985    0.0327871021         -0.3731
C692       C    0.8302466668    0.4822987267    0.0367370353         -0.3714
H693       H    0.8230892755    0.4872184810    0.0620328804         -0.3762
H694       H    0.8776187599    0.4572057713    0.0329379244         -0.3505
H695       H    0.8794079117    0.4960192364    0.0525821161         -0.3871
H696       H    0.8197285241    0.4590486082    0.0286276502         -0.3491
H697       H    0.8834540509    0.5247688294    0.0050015305          0.5872
C698       C    0.8744587768    0.5000000000    0.0000000000         -0.3892
H699       H    0.8315262384    0.5322887837    0.0238922873          0.5825
H700       H    0.6359395794    0.5146620647    0.0823634412          0.6078
H701       H    0.6072152581    0.4858291485    0.0683731495         -0.3636
H702       H    0.6022810909    0.5280690844    0.0593175689          0.5977
C629       C    1.3744587768    0.5000000000    0.0000000000         -0.3761
C630       C    1.3605952562    0.5300410986    0.0004783273         -0.3811
C631       C    1.3279963332    0.5324220619    0.0034713914         -0.3859
C632       C    1.3080040940    0.5063841809    0.0059063961         -0.3858
C633       C    1.3218570250    0.4765537471    0.0039598399         -0.3794
C634       C    1.3545110088    0.4739216508    0.0011046082         -0.3747
C635       C    1.2719523130    0.5108060044    0.0173611117          0.6012
H636       H    1.3180659554    0.5569188157    0.0054324335          0.6078
C637       C    1.3798303565    0.5622247574    0.0011961185          -0.385
H638       H    1.3651147583    0.4494106747    0.0003988514         -0.3704
N639       N    1.3040792261    0.4489487555    0.0063966340          -0.379
H640       H    1.2830836228    0.4492972813    0.0199382786          0.6074
H641       H    1.2986772378    0.4363586038   -0.0144195924         -0.3586
O642       O    1.2431445150    0.5024701277   -0.0028764208         -0.3807
C643       C    1.2263123968    0.5430966021    0.0348299176          0.5785
C644       C    1.2629023979    0.5455162397    0.0283885059          0.5861
C645       C    1.1790451778    0.5143405141    0.0084377161           0.604
H646       H    1.2667115037    0.5629998065    0.0084331806          0.6023
H647       H    1.2209728390    0.5432974539    0.0610205335          0.5542
H648       H    1.2140652735    0.5640115165    0.0234302054          0.5856
H649       H    1.2763612033    0.5532428314    0.0500834360          0.5659
H650       H    1.2158930411    0.4914794271    0.0385604648          0.5813
C651       C    1.2156190643    0.5102409203    0.0193786949          0.5964
H652       H    1.2701648955    0.4952834600    0.0391627652          0.5831
O653       O    1.1581566519    0.4858235227    0.0052726216         -0.3905
C654       C    1.1321492351    0.5305377619   -0.0214935505         -0.3731
C655       C    1.1697533332    0.5344818350   -0.0217703443         -0.3714
H656       H    1.1769107245    0.5601734156   -0.0197637428         -0.3762
H657       H    1.1223812401    0.5278494181   -0.0462672971         -0.3505
H658       H    1.1205920883    0.5517865377   -0.0099438386         -0.3871
H659       H    1.1802714759    0.5237770879   -0.0439455224         -0.3491
H660       H    1.1165459491    0.5077900946    0.0240379833          0.5872
C661       C    1.1255412232    0.5000000000    0.0000000000         -0.3892
H662       H    1.1684737616    0.5274144247    0.0293573885          0.5825
H663       H    1.3640604206    0.5834974350    0.0051856482          0.6078
H664       H    1.3927847419    0.5663141837   -0.0218661760         -0.3636
H665       H    1.3977189091    0.5621285620    0.0211302924          0.5977
C592       C    1.0000000000    0.5000000000   -0.1255412232         -0.3761
C593       C    1.0296664857    0.5047535278   -0.1394047438         -0.3811
C594       C    1.0315967254    0.5080552839   -0.1720036668         -0.3859
C595       C    1.0054775441    0.5067557229   -0.1919959060         -0.3858
C596       C    0.9762287586    0.5005789586   -0.1781429750         -0.3794
C597       C    0.9740303104    0.4973778488   -0.1454889912         -0.3747
C598       C    1.0082222575    0.5187235791   -0.2280476870          0.6012
H599       H    1.0555641783    0.5134864748   -0.1819340446          0.6086
C600       C    1.0614195570    0.5100493361   -0.1201696435          -0.385
H601       H    0.9498699345    0.4931871112   -0.1348852417         -0.3704
N602       N    0.9485581986    0.4990578960   -0.1959207739          -0.379
H603       H    0.9469738345    0.5125110517   -0.2169163772          0.6074
H604       H    0.9390622593    0.4766602547   -0.2013227622         -0.3586
O605       O    1.0028547444    0.4975048523   -0.2568554850         -0.3807
C606       C    1.0376945900    0.5406147530   -0.2736876032          0.5785
C607       C    1.0410072784    0.5345837889   -0.2370976021          0.5861
C608       C    1.0129920632    0.5103947916   -0.3209548222           0.604
H609       H    1.0611556051    0.5173229939   -0.2332884963          0.6023
H610       H    1.0341619070    0.5665668021   -0.2790271610          0.5542
H611       H    1.0600203058    0.5323111694   -0.2859347265          0.5856
H612       H    1.0455640806    0.5571582384   -0.2236387967          0.5659
H613       H    0.9860724799    0.5369531296   -0.2841069589          0.5813
C614       C    1.0073754847    0.5206400700   -0.2843809357          0.5964
H615       H    0.9897518938    0.5380912621   -0.2298351045          0.5831
O616       O    0.9852169314    0.5031990515   -0.3418433481         -0.3905
C617       C    1.0332885071    0.4830765573   -0.3678507649         -0.3731
C618       C    1.0372317808    0.4833645157   -0.3302466668         -0.3714
H619       H    1.0623753804    0.4890110331   -0.3230892755         -0.3762
H620       H    1.0341572069    0.4581725200   -0.3776187599         -0.3505
H621       H    1.0526749785    0.4975358465   -0.3794079117         -0.3871
H622       H    1.0297956276    0.4598904073   -0.3197285241         -0.3491
H623       H    1.0042858328    0.5249026475   -0.3834540509          0.5872
C624       C    1.0000000000    0.5000000000   -0.3744587768         -0.3892
H625       H    1.0229520880    0.5329637468   -0.3315262384          0.5825
H626       H    1.0819068169    0.5170289733   -0.1359395794          0.6078
H627       H    1.0687530460    0.4878049486   -0.1072152581         -0.3636
H628       H    1.0584842384    0.5297664465   -0.1022810909          0.5977
C555       C    1.0000000000    0.5000000000    0.1255412232         -0.3761
C556       C    0.9703335143    0.5047535278    0.1394047438         -0.3811
C557       C    0.9684032746    0.5080552839    0.1720036668         -0.3859
C558       C    0.9945224559    0.5067557229    0.1919959060         -0.3858
C559       C    1.0237712414    0.5005789586    0.1781429750         -0.3794
C560       C    1.0259696896    0.4973778488    0.1454889912         -0.3747
C561       C    0.9917777425    0.5187235791    0.2280476870          0.6012
H562       H    0.9444358217    0.5134864748    0.1819340446          0.6086
C563       C    0.9385804430    0.5100493361    0.1201696435          -0.385
H564       H    1.0501300655    0.4931871112    0.1348852417         -0.3704
N565       N    1.0514418014    0.4990578960    0.1959207739          -0.379
H566       H    1.0530261655    0.5125110517    0.2169163772          0.6074
H567       H    1.0609377407    0.4766602547    0.2013227622         -0.3586
O568       O    0.9971452556    0.4975048523    0.2568554850         -0.3807
C569       C    0.9623054100    0.5406147530    0.2736876032          0.5785
C570       C    0.9589927216    0.5345837889    0.2370976021          0.5861
C571       C    0.9870079368    0.5103947916    0.3209548222           0.604
H572       H    0.9388443949    0.5173229939    0.2332884963          0.6023
H573       H    0.9658380930    0.5665668021    0.2790271610          0.5542
H574       H    0.9399796942    0.5323111694    0.2859347265          0.5856
H575       H    0.9544359194    0.5571582384    0.2236387967          0.5659
H576       H    1.0139275201    0.5369531296    0.2841069589          0.5813
C577       C    0.9926245153    0.5206400700    0.2843809357          0.5964
H578       H    1.0102481062    0.5380912621    0.2298351045          0.5831
O579       O    1.0147830686    0.5031990515    0.3418433481         -0.3905
C580       C    0.9667114929    0.4830765573    0.3678507649         -0.3731
C581       C    0.9627682192    0.4833645157    0.3302466668         -0.3714
H582       H    0.9376246196    0.4890110331    0.3230892755         -0.3762
H583       H    0.9658427931    0.4581725200    0.3776187599         -0.3505
H584       H    0.9473250215    0.4975358465    0.3794079117         -0.3871
H585       H    0.9702043724    0.4598904073    0.3197285241         -0.3491
H586       H    0.9957141672    0.5249026475    0.3834540509          0.5872
C587       C    1.0000000000    0.5000000000    0.3744587768         -0.3892
H588       H    0.9770479120    0.5329637468    0.3315262384          0.5825
H589       H    0.9180931831    0.5170289733    0.1359395794          0.6078
H590       H    0.9312469540    0.4878049486    0.1072152581         -0.3636
H591       H    0.9415157616    0.5297664465    0.1022810909          0.5977
C518       C    1.0000000000   -0.1255412232    0.5000000000         -0.3761
C519       C    1.0296664857   -0.1394047438    0.4952464722         -0.3811
C520       C    1.0315967254   -0.1720036668    0.4919447161         -0.3859
C521       C    1.0054775441   -0.1919959060    0.4932442771         -0.3858
C522       C    0.9762287586   -0.1781429750    0.4994210414         -0.3794
C523       C    0.9740303104   -0.1454889912    0.5026221512         -0.3747
C524       C    1.0082222575   -0.2280476870    0.4812764209          0.6012
H525       H    1.0555641783   -0.1819340446    0.4865135252          0.6086
C526       C    1.0614195570   -0.1201696435    0.4899506639          -0.385
H527       H    0.9498699345   -0.1348852417    0.5068128888         -0.3704
N528       N    0.9485581986   -0.1959207739    0.5009421040          -0.379
H529       H    0.9469738345   -0.2169163772    0.4874889483          0.6074
H530       H    0.9390622593   -0.2013227622    0.5233397453         -0.3586
O531       O    1.0028547444   -0.2568554850    0.5024951477         -0.3807
C532       C    1.0376945900   -0.2736876032    0.4593852470          0.5785
C533       C    1.0410072784   -0.2370976021    0.4654162111          0.5861
C534       C    1.0129920632   -0.3209548222    0.4896052084           0.604
H535       H    1.0611556051   -0.2332884963    0.4826770061          0.6023
H536       H    1.0341619070   -0.2790271610    0.4334331979          0.5542
H537       H    1.0600203058   -0.2859347265    0.4676888306          0.5856
H538       H    1.0455640806   -0.2236387967    0.4428417616          0.5659
H539       H    0.9860724799   -0.2841069589    0.4630468704          0.5813
C540       C    1.0073754847   -0.2843809357    0.4793599300          0.5964
H541       H    0.9897518938   -0.2298351045    0.4619087379          0.5831
O542       O    0.9852169314   -0.3418433481    0.4968009485         -0.3905
C543       C    1.0332885071   -0.3678507649    0.5169234427         -0.3731
C544       C    1.0372317808   -0.3302466668    0.5166354843         -0.3714
H545       H    1.0623753804   -0.3230892755    0.5109889669         -0.3762
H546       H    1.0341572069   -0.3776187599    0.5418274800         -0.3505
H547       H    1.0526749785   -0.3794079117    0.5024641535         -0.3871
H548       H    1.0297956276   -0.3197285241    0.5401095927         -0.3491
H549       H    1.0042858328   -0.3834540509    0.4750973525          0.5872
C550       C    1.0000000000   -0.3744587768    0.5000000000         -0.3892
H551       H    1.0229520880   -0.3315262384    0.4670362532          0.5825
H552       H    1.0819068169   -0.1359395794    0.4829710267          0.6078
H553       H    1.0687530460   -0.1072152581    0.5121950514         -0.3636
H554       H    1.0584842384   -0.1022810909    0.4702335535          0.5977
C481       C    1.0000000000    0.1255412232    0.5000000000         -0.3761
C482       C    1.0227933976    0.1394047438    0.5195744074         -0.3811
C483       C    1.0227105698    0.1720036668    0.5233980913         -0.3859
C484       C    1.0011327050    0.1919959060    0.5086232395         -0.3858
C485       C    0.9794399959    0.1781429750    0.4880545683         -0.3794
C486       C    0.9792416001    0.1454889912    0.4841763061         -0.3747
C487       C    0.9972092256    0.2280476870    0.5202580727          0.6012
H488       H    1.0402928420    0.1819340446    0.5405678420          0.6086
C489       C    1.0470811535    0.1201696435    0.5407027777          -0.385
H490       H    0.9608458323    0.1348852417    0.4679626770         -0.3704
N491       N    0.9566560037    0.1959207739    0.4722791689          -0.379
H492       H    0.9482662160    0.2169163772    0.4829144437          0.6074
H493       H    0.9602839195    0.2013227622    0.4482237033         -0.3586
O494       O    1.0037383555    0.2568554850    0.4993675240         -0.3807
C495       C    1.0108695395    0.2736876032    0.5543350107          0.5785
C496       C    1.0168483295    0.2370976021    0.5509290598          0.5861
C497       C    1.0056321062    0.3209548222    0.5156564612           0.604
H498       H    1.0430501286    0.2332884963    0.5467630258          0.6023
H499       H    0.9942791518    0.2790271610    0.5746019231          0.5542
H500       H    1.0342397875    0.2859347265    0.5589413753          0.5856
H501       H    1.0089189288    0.2236387967    0.5725506882          0.5659
H502       H    0.9687949358    0.2841069589    0.5242023464          0.5813
C503       C    0.9954847902    0.2843809357    0.5214481502          0.5964
H504       H    0.9713348568    0.2298351045    0.5270975552          0.5831
O505       O    0.9857283957    0.3418433481    0.4949905732         -0.3905
C506       C    1.0372228919    0.3678507649    0.5029973213         -0.3731
C507       C    1.0404325367    0.3302466668    0.5053061105         -0.3714
H508       H    1.0589044075    0.3230892755    0.5232747986         -0.3762
H509       H    1.0509947287    0.3776187599    0.4822295043         -0.3505
H510       H    1.0461772641    0.3794079117    0.5254634189         -0.3871
H511       H    1.0463790169    0.3197285241    0.4814111422         -0.3491
H512       H    0.9906214098    0.3834540509    0.5234638501          0.5872
C513       C    1.0000000000    0.3744587768    0.5000000000         -0.3892
H514       H    1.0023100249    0.3315262384    0.5401007572          0.5825
H515       H    1.0608874654    0.1359395794    0.5573709783          0.6078
H516       H    1.0649703485    0.1072152581    0.5255842613         -0.3636
H517       H    1.0342623821    0.1022810909    0.5559690687          0.5977
C444       C    0.8744587768   -0.0000000000    0.5000000000         -0.3761
C445       C    0.8605952562    0.0293841835    0.4937337284         -0.3811
C446       C    0.8279963332    0.0323753536    0.4961170707         -0.3859
C447       C    0.8080040940    0.0075454628    0.5043254215         -0.3858
C448       C    0.8218570250   -0.0219624553    0.5091135979         -0.3794
C449       C    0.8545110088   -0.0251674813    0.5069208629         -0.3747
C450       C    0.7719523130    0.0144219014    0.5144978168          0.6012
H451       H    0.8180659554    0.0566885031    0.4925383289          0.6086
C452       C    0.8798303565    0.0609100957    0.4872206661          -0.385
H453       H    0.8651147583   -0.0492131726    0.5117261485         -0.3704
N454       N    0.8040792261   -0.0483191952    0.5176748937          -0.379
H455       H    0.7830836228   -0.0449447516    0.5307939919          0.6074
H456       H    0.7986772378   -0.0652541798    0.5002096855         -0.3586
O457       O    0.7431445150    0.0017626715    0.4966431686         -0.3807
C458       C    0.7263123968    0.0498060587    0.5242857323          0.5785
C459       C    0.7629023979    0.0507205834    0.5174659027          0.5861
C460       C    0.6790451778    0.0158667099    0.5050092829           0.604
H461       H    0.7667115037    0.0632873101    0.4940999554          0.6023
H462       H    0.7209728390    0.0558713125    0.5497651632          0.5542
H463       H    0.7140652735    0.0676342310    0.5084887909          0.5856
H464       H    0.7763612033    0.0631126394    0.5368774241          0.5659
H465       H    0.7158930411    0.0003378380    0.5394891817          0.5813
C466       C    0.7156190643    0.0143233458    0.5165907212          0.5964
H467       H    0.7701648955    0.0041800932    0.5392236504          0.5831
O468       O    0.6581566519   -0.0126342573    0.5083155630         -0.3905
C469       C    0.6321492351    0.0249441536    0.4722094113         -0.3731
C470       C    0.6697533332    0.0287258755    0.4710557620         -0.3714
H471       H    0.6769107245    0.0542136709    0.4672536512         -0.3762
H472       H    0.6223812401    0.0167722094    0.4486682763         -0.3505
H473       H    0.6205920883    0.0482408311    0.4787033422         -0.3871
H474       H    0.6802714759    0.0133237880    0.4518436347         -0.3491
H475       H    0.6165459491    0.0129790392    0.5216807462          0.5872
C476       C    0.6255412232   -0.0000000000    0.5000000000         -0.3892
H477       H    0.6684737616    0.0332963318    0.5224668919          0.5825
H478       H    0.8640604206    0.0825357742    0.4863413555          0.6078
H479       H    0.8927847419    0.0597270744    0.4638285030         -0.3636
H480       H    0.8977189091    0.0652837429    0.5066693615          0.5977
C407       C    1.3744587768   -0.0000000000    0.5000000000         -0.3761
C408       C    1.3605952562    0.0296816172    0.5046581116         -0.3811
C409       C    1.3279963332    0.0316224636    0.5079536440         -0.3859
C410       C    1.3080040940    0.0054992385    0.5067380751         -0.3858
C411       C    1.3218570250   -0.0237692568    0.5006553913         -0.3794
C412       C    1.3545110088   -0.0259779868    0.4974613671         -0.3747
C413       C    1.2719523130    0.0082824200    0.5186970439          0.6012
H414       H    1.3180659554    0.0556072564    0.5133077403          0.6086
C415       C    1.3798303565    0.0614515528    0.5098517915          -0.385
H416       H    1.3651147583   -0.0501517129    0.4933483380         -0.3704
N417       N    1.3040792261   -0.0514445648    0.4992233103          -0.379
H418       H    1.2830836228   -0.0529856624    0.5126814909          0.6074
H419       H    1.2986772378   -0.0610124738    0.4768563186         -0.3586
O420       O    1.2431445150    0.0028467066    0.4974956859         -0.3807
C421       C    1.2263123968    0.0378249906    0.5404933373          0.5785
C422       C    1.2629023979    0.0411182695    0.5344517526          0.5861
C423       C    1.1790451778    0.0130254201    0.5103529623           0.604
H424       H    1.2667115037    0.0612109905    0.5171262605          0.6023
H425       H    1.2209728390    0.0343757738    0.5664566114          0.5542
H426       H    1.2140652735    0.0601238910    0.5321180090          0.5856
H427       H    1.2763612033    0.0457476355    0.5570114331          0.5659
H428       H    1.2158930411   -0.0138086265    0.5369977221          0.5813
C429       C    1.2156190643    0.0074418140    0.5206162477          0.5964
H430       H    1.2701648955   -0.0101255720    0.5381240177          0.5831
O431       O    1.1581566519   -0.0147727057    0.5032465694         -0.3905
C432       C    1.1321492351    0.0332339182    0.4829696066         -0.3731
C433       C    1.1697533332    0.0371780974    0.4832448841         -0.3714
H434       H    1.1769107245    0.0623397233    0.4888105239         -0.3762
H435       H    1.1223812401    0.0340225354    0.4580629048         -0.3505
H436       H    1.1205920883    0.0526667828    0.4973664845         -0.3871
H437       H    1.1802714759    0.0296665025    0.4597948078         -0.3491
H438       H    1.1165459491    0.0043658843    0.5248887378          0.5872
C439       C    1.1255412232   -0.0000000000    0.5000000000         -0.3892
H440       H    1.1684737616    0.0230579632    0.5328897747          0.5825
H441       H    1.3640604206    0.0819611496    0.5167655166          0.6078
H442       H    1.3927847419    0.0687134778    0.4875839384         -0.3636
H443       H    1.3977189091    0.0585796491    0.5295782385          0.5977
C370       C   -0.0000000000   -0.3744587768    0.0000000000         -0.3761
C371       C    0.0300177235   -0.3605952562    0.0012777621         -0.3811
C372       C    0.0323181769   -0.3279963332    0.0043331399         -0.3859
C373       C    0.0062247084   -0.3080040940    0.0060742313         -0.3858
C374       C   -0.0235433451   -0.3218570250    0.0033343678         -0.3794
C375       C   -0.0260985111   -0.3545110088    0.0004100891         -0.3747
C376       C    0.0103400750   -0.2719523130    0.0176425843          0.6012
H377       H    0.0567540545   -0.3180659554    0.0069455176          0.6086
C378       C    0.0621708743   -0.3798303565    0.0028519318          -0.385
H379       H   -0.0505820180   -0.3651147583   -0.0009478265         -0.3704
N380       N   -0.0512034166   -0.3040792261    0.0050355362          -0.379
H381       H   -0.0512154524   -0.2830836228    0.0185816597          0.6074
H382       H   -0.0632350419   -0.2986772378   -0.0161084273         -0.3586
O383       O    0.0025458143   -0.2431445150   -0.0028096543         -0.3807
C384       C    0.0421542649   -0.2263123968    0.0359646803          0.5785
C385       C    0.0447444963   -0.2629023979    0.0295899542          0.5861
C386       C    0.0141108465   -0.1790451778    0.0088164283           0.604
H387       H    0.0627530199   -0.2667115037    0.0101070593          0.6023
H388       H    0.0416579296   -0.2209728390    0.0621513630          0.5542
H389       H    0.0633651955   -0.2140652735    0.0251256994          0.5856
H390       H    0.0518908963   -0.2763612033    0.0514828567          0.5659
H391       H   -0.0095439184   -0.2158930411    0.0383200108          0.5813
C392       C    0.0097214891   -0.2156190643    0.0196444118          0.5964
H393       H   -0.0057572647   -0.2701648955    0.0390233499          0.5831
O394       O   -0.0143117960   -0.1581566519    0.0048934181         -0.3905
C395       C    0.0310990366   -0.1321492351   -0.0206731115         -0.3731
C396       C    0.0350490798   -0.1697533332   -0.0208448277         -0.3714
H397       H    0.0606781482   -0.1769107245   -0.0181551041         -0.3762
H398       H    0.0290710483   -0.1223812401   -0.0455096365         -0.3505
H399       H    0.0520328653   -0.1205920883   -0.0085619127         -0.3871
H400       H    0.0249383622   -0.1802714759   -0.0432970777         -0.3491
H401       H    0.0071475154   -0.1165459491    0.0242368158          0.5872
C402       C   -0.0000000000   -0.1255412232    0.0000000000         -0.3892
H403       H    0.0266233060   -0.1684737616    0.0300766774          0.5825
H404       H    0.0833298258   -0.3640604206    0.0074062630          0.6078
H405       H    0.0668727011   -0.3927847419   -0.0200933435         -0.3636
H406       H    0.0615441249   -0.3977189091    0.0227764826          0.5977
C333       C    0.0000000000    0.1255412232   -0.0000000000         -0.3761
C334       C    0.0299942751    0.1394047438    0.0017435200         -0.3811
C335       C    0.0322470282    0.1720036668    0.0048342355         -0.3859
C336       C    0.0061296791    0.1919959060    0.0061701146         -0.3858
C337       C   -0.0235922625    0.1781429750    0.0029685446         -0.3794
C338       C   -0.0261017323    0.1454889912    0.0000049589         -0.3747
C339       C    0.0100649949    0.2280476870    0.0178009496          0.6012
H340       H    0.0566394149    0.1819340446    0.0078255732          0.6086
C341       C    0.0621191197    0.1201696435    0.0038165563          -0.385
H342       H   -0.0505612134    0.1348852417   -0.0017328071         -0.3704
N343       N   -0.0512754062    0.1959207739    0.0042401899          -0.379
H344       H   -0.0514976929    0.2169163772    0.0177844949          0.6074
H345       H   -0.0629774020    0.2013227622   -0.0170879720         -0.3586
O346       O    0.0025891169    0.2568554850   -0.0027698017         -0.3807
C347       C    0.0415909711    0.2736876032    0.0366146337          0.5785
C348       C    0.0442798340    0.2370976021    0.0302808790          0.5861
C349       C    0.0139723050    0.3209548222    0.0090343839           0.604
H350       H    0.0625885866    0.2332884963    0.0110798454          0.6023
H351       H    0.0406882463    0.2790271610    0.0627904582          0.5542
H352       H    0.0629675808    0.2859347265    0.0261061781          0.5856
H353       H    0.0510855686    0.2236387967    0.0522820652          0.5659
H354       H   -0.0101375421    0.2841069589    0.0381672614          0.5813
C355       C    0.0094154127    0.2843809357    0.0197929348          0.5964
H356       H   -0.0063622613    0.2298351045    0.0389292893          0.5831
O357       O   -0.0143860238    0.3418433481    0.0046706920         -0.3905
C358       C    0.0314161624    0.3678507649   -0.0201879261         -0.3731
C359       C    0.0353683949    0.3302466668   -0.0202983122         -0.3714
H360       H    0.0609526282    0.3230892755   -0.0172111181         -0.3762
H361       H    0.0297739116    0.3776187599   -0.0450529362         -0.3505
H362       H    0.0521594887    0.3794079117   -0.0077532676         -0.3871
H363       H    0.0256073817    0.3197285241   -0.0429047882         -0.3491
H364       H    0.0067704694    0.3834540509    0.0243448344          0.5872
C365       C    0.0000000000    0.3744587768    0.0000000000         -0.3892
H366       H    0.0261532721    0.3315262384    0.0304862806          0.5825
H367       H    0.0832048335    0.1359395794    0.0086987517          0.6078
H368       H    0.0671765188    0.1072152581   -0.0190529770         -0.3636
H369       H    0.0611831924    0.1022810909    0.0237289790          0.5977
C296       C   -0.3744587768   -0.0000000000    0.0000000000         -0.3761
C297       C   -0.3605952562   -0.0285900408    0.0092361231         -0.3811
C298       C   -0.3279963332   -0.0299924366    0.0127943115         -0.3859
C299       C   -0.3080040940   -0.0043795346    0.0075141837         -0.3858
C300       C   -0.3218570250    0.0235799879   -0.0030645198         -0.3794
C301       C   -0.3545110088    0.0252628324   -0.0065642788         -0.3747
C302       C   -0.2719523130   -0.0052610259    0.0197610611          0.6012
H303       H   -0.3180659554   -0.0528468585    0.0218282492          0.6086
C304       C   -0.3798303565   -0.0591591434    0.0193273611          -0.385
H305       H   -0.3651147583    0.0484976780   -0.0144018799         -0.3704
N306       N   -0.3040792261    0.0506921196   -0.0088008807          -0.379
H307       H   -0.2830836228    0.0543159753    0.0042515244          0.6074
H308       H   -0.2986772378    0.0566497545   -0.0323876097         -0.3586
O309       O   -0.2431445150   -0.0032028617   -0.0020290403         -0.3807
C310       C   -0.2263123968   -0.0310373820    0.0459033898          0.5785
C311       C   -0.2629023979   -0.0352337267    0.0404502144          0.5861
C312       C   -0.1790451778   -0.0112488697    0.0122600297           0.604
H313       H   -0.2667115037   -0.0577855321    0.0264750153          0.6023
H314       H   -0.2209728390   -0.0235759885    0.0710094909          0.5542
H315       H   -0.2140652735   -0.0543706185    0.0411130710          0.5856
H316       H   -0.2763612033   -0.0362833170    0.0634560522          0.5659
H317       H   -0.2158930411    0.0194168759    0.0343874183          0.5813
C318       C   -0.2156190643   -0.0041310250    0.0215254477          0.5964
H319       H   -0.2701648955    0.0159548928    0.0360750513          0.5831
O320       O   -0.1581566519    0.0150984575    0.0008997934         -0.3905
C321       C   -0.1321492351   -0.0354856945   -0.0116315565         -0.3731
C322       C   -0.1697533332   -0.0393384959   -0.0107437228         -0.3714
H323       H   -0.1769107245   -0.0633222775   -0.0013170595         -0.3762
H324       H   -0.1223812401   -0.0401541332   -0.0361095342         -0.3505
H325       H   -0.1205920883   -0.0524318894    0.0056233789         -0.3871
H326       H   -0.1802714759   -0.0355810842   -0.0350791290         -0.3491
H327       H   -0.1165459491   -0.0004256294    0.0252651747          0.5872
C328       C   -0.1255412232   -0.0000000000    0.0000000000         -0.3892
H329       H   -0.1684737616   -0.0176389185    0.0360870544          0.5825
H330       H   -0.3640604206   -0.0783374495    0.0293590973          0.6078
H331       H   -0.3927847419   -0.0698093815   -0.0015332540         -0.3636
H332       H   -0.3977189091   -0.0532419397    0.0383633071          0.5977
C259       C    0.3744587768   -0.0000000000    0.0000000000         -0.3761
C260       C    0.3605952562   -0.0273026208    0.0125404664         -0.3811
C261       C    0.3279963332   -0.0307425915    0.0108689340         -0.3859
C262       C    0.3080040940   -0.0083087323   -0.0025706514         -0.3858
C263       C    0.3218570250    0.0194378647   -0.0136958579         -0.3794
C264       C    0.3545110088    0.0230448323   -0.0122570862         -0.3747
C265       C    0.2719523130   -0.0172432762   -0.0109930595          0.6012
H266       H    0.3180659554   -0.0536846407    0.0196779640          0.6086
C267       C    0.3798303565   -0.0566411618    0.0257901129          -0.385
H268       H    0.3651147583    0.0454576709   -0.0222044833         -0.3704
N269       N    0.3040792261    0.0432844332   -0.0278137437          -0.379
H270       H    0.2830836228    0.0371227222   -0.0398773637          0.6074
H271       H    0.2986772378    0.0636288875   -0.0144746892         -0.3586
O272       O    0.2431445150   -0.0009859201    0.0036610503         -0.3807
C273       C    0.2263123968   -0.0539114473   -0.0128060970          0.5785
C274       C    0.2629023979   -0.0533124454   -0.0059513448          0.5861
C275       C    0.1790451778   -0.0165781185   -0.0014182325           0.604
H276       H    0.2667115037   -0.0604652312    0.0195971927          0.6023
H277       H    0.2209728390   -0.0654018525   -0.0363424368          0.5542
H278       H    0.2140652735   -0.0678535531    0.0065072344          0.5856
H279       H    0.2763612033   -0.0696495585   -0.0221830714          0.5659
H280       H    0.2158930411   -0.0089653335   -0.0384594904          0.5813
C281       C    0.2156190643   -0.0176047919   -0.0130568590          0.5964
H282       H    0.2701648955   -0.0126565218   -0.0373601444          0.5831
O283       O    0.1581566519    0.0105099680   -0.0108772064         -0.3905
C284       C    0.1321492351   -0.0182630241    0.0325728348         -0.3731
C285       C    0.1697533332   -0.0217009265    0.0345255648         -0.3714
H286       H    0.1769107245   -0.0457403428    0.0438094341         -0.3762
H287       H    0.1223812401   -0.0051407950    0.0537570934         -0.3505
H288       H    0.1205920883   -0.0424159420    0.0313307083         -0.3871
H289       H    0.1802714759   -0.0024702422    0.0499044763         -0.3491
H290       H    0.1165459491   -0.0174061331   -0.0183176621          0.5872
C291       C    0.1255412232   -0.0000000000    0.0000000000         -0.3892
H292       H    0.1684737616   -0.0374035760   -0.0146417023          0.5825
H293       H    0.3640604206   -0.0775511124    0.0313773416          0.6078
H294       H    0.3927847419   -0.0503712708    0.0483573747         -0.3636
H295       H    0.3977189091   -0.0651620762    0.0077686103          0.5977
C222       C    0.0000000000    0.0000000000   -0.3744587768         -0.3761
C223       C   -0.0037643356   -0.0298081563   -0.3605952562         -0.3811
C224       C   -0.0070000751   -0.0318471287   -0.3279963332         -0.3859
C225       C   -0.0065698298   -0.0056991769   -0.3080040940         -0.3858
C226       C   -0.0013691543    0.0237388400   -0.3218570250         -0.3794
C227       C    0.0017570753    0.0260425256   -0.3545110088         -0.3747
C228       C   -0.0184397907   -0.0088403649   -0.2719523130          0.6012
H229       H   -0.0116312211   -0.0559819401   -0.3180659554          0.6086
C230       C   -0.0080012620   -0.0617197775   -0.3798303565          -0.385
H231       H    0.0051420384    0.0503289018   -0.3651147583         -0.3704
N232       N   -0.0007691211    0.0514446785   -0.3040792261          -0.379
H233       H   -0.0142675241    0.0525807797   -0.2830836228          0.6074
H234       H    0.0213003432    0.0616802021   -0.2986772378         -0.3586
O235       O    0.0025887025   -0.0027701889   -0.2431445150         -0.3807
C236       C   -0.0393387500   -0.0390243901   -0.2263123968          0.5785
C237       C   -0.0332009578   -0.0421346857   -0.2629023979          0.5861
C238       C   -0.0099569894   -0.0133305574   -0.1790451778           0.604
H239       H   -0.0152796745   -0.0616978581   -0.2667115037          0.6023
H240       H   -0.0653939248   -0.0363566999   -0.2209728390          0.5542
H241       H   -0.0302973145   -0.0610616206   -0.2140652735          0.5856
H242       H   -0.0556113842   -0.0474396839   -0.2763612033          0.5659
H243       H   -0.0373958522    0.0126909353   -0.2158930411          0.5813
C244       C   -0.0203833812   -0.0080577936   -0.2156190643          0.5964
H245       H   -0.0384109958    0.0089757078   -0.2701648955          0.5831
O246       O   -0.0036888950    0.0146685071   -0.1581566519         -0.3905
C247       C    0.0180210961   -0.0327073037   -0.1321492351         -0.3731
C248       C    0.0178644311   -0.0366579724   -0.1697533332         -0.3714
H249       H    0.0130571906   -0.0619754407   -0.1769107245         -0.3762
H250       H    0.0429402476   -0.0327473359   -0.1223812401         -0.3505
H251       H    0.0042145042   -0.0525638980   -0.1205920883         -0.3871
H252       H    0.0410782655   -0.0284452975   -0.1802714759         -0.3491
H253       H   -0.0247463478   -0.0051116032   -0.1165459491          0.5872
C254       C    0.0000000000    0.0000000000   -0.1255412232         -0.3892
H255       H   -0.0321822396   -0.0240356069   -0.1684737616          0.5825
H256       H   -0.0142957322   -0.0824278147   -0.3640604206          0.6078
H257       H    0.0144746982   -0.0683094702   -0.3927847419         -0.3636
H258       H   -0.0278050813   -0.0594417777   -0.3977189091          0.5977
C185       C   -0.0000000000   -0.0000000000    0.1255412232         -0.3761
C186       C   -0.0258822132    0.0152580287    0.1394047438         -0.3811
C187       C   -0.0264735281    0.0190366218    0.1720036668         -0.3859
C188       C   -0.0026324536    0.0082893587    0.1919959060         -0.3858
C189       C    0.0223412063   -0.0081411061    0.1781429750         -0.3794
C190       C    0.0232189606   -0.0119239392    0.1454889912         -0.3747
C191       C   -0.0008175685    0.0204330495    0.2280476870          0.6012
H192       H   -0.0468027866    0.0328445138    0.1819340446          0.6086
C193       C   -0.0535089157    0.0317828109    0.1201696435          -0.385
H194       H    0.0441807728   -0.0246474792    0.1348852417         -0.3704
N195       N    0.0475456528   -0.0196610628    0.1959207739          -0.379
H196       H    0.0539330439   -0.0077154007    0.2169163772          0.6074
H197       H    0.0482073667   -0.0439795606    0.2013227622         -0.3586
O198       O   -0.0035687248   -0.0012804417    0.2568554850         -0.3807
C199       C   -0.0202612107    0.0515744473    0.2736876032          0.5785
C200       C   -0.0255473637    0.0471695617    0.2370976021          0.5861
C201       C   -0.0082992745    0.0144210763    0.3209548222           0.604
H202       H   -0.0506072085    0.0384578288    0.2332884963          0.6023
H203       H   -0.0074960548    0.0744445041    0.2790271610          0.5542
H204       H   -0.0440773598    0.0519964914    0.2859347265          0.5856
H205       H   -0.0215464342    0.0698491290    0.2236387967          0.5659
H206       H    0.0264592657    0.0293158125    0.2841069589          0.5813
C207       C    0.0006705415    0.0219080040    0.2843809357          0.5964
H208       H    0.0234495112    0.0317188959    0.2298351045          0.5831
O209       O    0.0149304101   -0.0024198968    0.3418433481         -0.3905
C210       C   -0.0371694904   -0.0035995285    0.3678507649         -0.3731
C211       C   -0.0407353264   -0.0018915647    0.3302466668         -0.3714
H212       H   -0.0620808903    0.0125462561    0.3230892755         -0.3762
H213       H   -0.0470719331   -0.0264666958    0.3776187599         -0.3505
H214       H   -0.0499374746    0.0169403083    0.3794079117         -0.3871
H215       H   -0.0423842399   -0.0264600653    0.3197285241         -0.3491
H216       H    0.0051033313    0.0247480550    0.3834540509          0.5872
C217       C   -0.0000000000    0.0000000000    0.3744587768         -0.3892
H218       H   -0.0093304726    0.0390685196    0.3315262384          0.5825
H219       H   -0.0700328779    0.0457614315    0.1359395794          0.6078
H220       H   -0.0684585705    0.0137522630    0.1072152581         -0.3636
H221       H   -0.0435765678    0.0490665896    0.1022810909          0.5977
loop_
_geom_bond_atom_site_label_1
_geom_bond_atom_site_label_2
_geom_bond_distance
_geom_bond_site_symmetry_2
_ccdc_geom_bond_type
Zn1          O5 1.942       .   S
Zn1          O6 1.922       .   S
Zn1         O10 1.922       .   S
Zn1         O17 1.922       .   S
Zn2          O5 1.942       .   S
Zn2          O7 1.922       .   S
Zn2          O9 1.922       .   S
Zn2         O13 1.922       .   S
Zn3          O5 1.942       .   S
Zn3          O8 1.922       .   S
Zn3         O11 1.922       .   S
Zn3         O14 1.922       .   S
Zn4          O5 1.942       .   S
Zn4         O12 1.922       .   S
Zn4         O15 1.922       .   S
Zn4         O16 1.922       .   S
O6          C18 1.304       .   A
O7          C19 1.304       .   A
O8          C20 1.304       .   A
O9          C18 1.304       .   A
O10         C20 1.304       .   A
O11         C19 1.304       .   A
O12         C21 1.304       .   A
O13         C22 1.304       .   A
O14         C21 1.304       .   A
O15         C22 1.304       .   A
O16         C23 1.304       .   A
O17         C23 1.304       .   A
C18        C328 1.540       .   S
C19        C333 1.540       .   S
C20        C185 1.540       .   S
C21        C291 1.540       .   S
C22        C254 1.540       .   S
C23        C402 1.540       .   S
Zn24        O28 1.942       .   S
Zn24        O29 1.922       .   S
Zn24        O33 1.922       .   S
Zn24        O40 1.922       .   S
Zn25        O28 1.942       .   S
Zn25        O30 1.922       .   S
Zn25        O32 1.922       .   S
Zn25        O36 1.922       .   S
Zn26        O28 1.942       .   S
Zn26        O31 1.922       .   S
Zn26        O34 1.922       .   S
Zn26        O37 1.922       .   S
Zn27        O28 1.942       .   S
Zn27        O35 1.922       .   S
Zn27        O38 1.922       .   S
Zn27        O39 1.922       .   S
O29         C41 1.304       .   A
O30         C42 1.304       .   A
O31         C43 1.304       .   A
O32         C41 1.304       .   A
O33         C43 1.304       .   A
O34         C42 1.304       .   A
O35         C44 1.304       .   A
O36         C45 1.304       .   A
O37         C44 1.304       .   A
O38         C45 1.304       .   A
O39         C46 1.304       .   A
O40         C46 1.304       .   A
C41        C481 1.540       .   S
C42        C444 1.540       .   S
C43        C217 1.540   1_655   S
C44        C518 1.540       .   S
C45        C222 1.540   1_656   S
C46        C439 1.540       .   S
Zn47        O51 1.942       .   S
Zn47        O52 1.922       .   S
Zn47        O56 1.922       .   S
Zn47        O63 1.922       .   S
Zn48        O51 1.942       .   S
Zn48        O53 1.922       .   S
Zn48        O55 1.922       .   S
Zn48        O59 1.922       .   S
Zn49        O51 1.942       .   S
Zn49        O54 1.922       .   S
Zn49        O57 1.922       .   S
Zn49        O60 1.922       .   S
Zn50        O51 1.942       .   S
Zn50        O58 1.922       .   S
Zn50        O61 1.922       .   S
Zn50        O62 1.922       .   S
O52         C64 1.304       .   A
O53         C65 1.304       .   A
O54         C66 1.304       .   A
O55         C64 1.304       .   A
O56         C66 1.304       .   A
O57         C65 1.304       .   A
O58         C67 1.304       .   A
O59         C68 1.304       .   A
O60         C67 1.304       .   A
O61         C68 1.304       .   A
O62         C69 1.304       .   A
O63         C69 1.304       .   A
C64        C365 1.540   1_655   S
C65        C555 1.540       .   S
C66        C661 1.540       .   S
C67        C370 1.540   1_665   S
C68        C698 1.540       .   S
C69        C592 1.540       .   S
Zn70        O74 1.942       .   S
Zn70        O75 1.922       .   S
Zn70        O79 1.922       .   S
Zn70        O86 1.922       .   S
Zn71        O74 1.942       .   S
Zn71        O76 1.922       .   S
Zn71        O78 1.922       .   S
Zn71        O82 1.922       .   S
Zn72        O74 1.942       .   S
Zn72        O77 1.922       .   S
Zn72        O80 1.922       .   S
Zn72        O83 1.922       .   S
Zn73        O74 1.942       .   S
Zn73        O81 1.922       .   S
Zn73        O84 1.922       .   S
Zn73        O85 1.922       .   S
O75         C87 1.304       .   A
O76         C88 1.304       .   A
O77         C89 1.304       .   A
O78         C87 1.304       .   A
O79         C89 1.304       .   A
O80         C88 1.304       .   A
O81         C90 1.304       .   A
O82         C91 1.304       .   A
O83         C90 1.304       .   A
O84         C91 1.304       .   A
O85         C92 1.304       .   A
O86         C92 1.304       .   A
C87        C513 1.540       .   S
C88        C587 1.540       .   S
C89        C740 1.540       .   S
C90        C550 1.540   1_565   S
C91        C703 1.540       .   S
C92        C624 1.540   1_556   S
Zn93        O97 1.942       .   S
Zn93        O98 1.922       .   S
Zn93       O102 1.922       .   S
Zn93       O109 1.922       .   S
Zn94        O97 1.942       .   S
Zn94        O99 1.922       .   S
Zn94       O101 1.922       .   S
Zn94       O105 1.922       .   S
Zn95        O97 1.942       .   S
Zn95       O100 1.922       .   S
Zn95       O103 1.922       .   S
Zn95       O106 1.922       .   S
Zn96        O97 1.942       .   S
Zn96       O104 1.922       .   S
Zn96       O107 1.922       .   S
Zn96       O108 1.922       .   S
O98        C110 1.304       .   A
O99        C111 1.304       .   A
O100       C112 1.304       .   A
O101       C110 1.304       .   A
O102       C112 1.304       .   A
O103       C111 1.304       .   A
O104       C113 1.304       .   A
O105       C114 1.304       .   A
O106       C113 1.304       .   A
O107       C114 1.304       .   A
O108       C115 1.304       .   A
O109       C115 1.304       .   A
C110       C259 1.540   1_565   S
C111       C777 1.540       .   S
C112       C888 1.540       .   S
C113       C296 1.540   1_665   S
C114       C851 1.540       .   S
C115       C814 1.540       .   S
Zn116      O120 1.942       .   S
Zn116      O121 1.922       .   S
Zn116      O125 1.922       .   S
Zn116      O132 1.922       .   S
Zn117      O120 1.942       .   S
Zn117      O122 1.922       .   S
Zn117      O124 1.922       .   S
Zn117      O128 1.922       .   S
Zn118      O120 1.942       .   S
Zn118      O123 1.922       .   S
Zn118      O126 1.922       .   S
Zn118      O129 1.922       .   S
Zn119      O120 1.942       .   S
Zn119      O127 1.922       .   S
Zn119      O130 1.922       .   S
Zn119      O131 1.922       .   S
O121       C133 1.304       .   A
O122       C134 1.304       .   A
O123       C135 1.304       .   A
O124       C133 1.304       .   A
O125       C135 1.304       .   A
O126       C134 1.304       .   A
O127       C136 1.304       .   A
O128       C137 1.304       .   A
O129       C136 1.304       .   A
O130       C137 1.304       .   A
O131       C138 1.304       .   A
O132       C138 1.304       .   A
C133       C809 1.540       .   S
C134       C925 1.540       .   S
C135       C407 1.540   1_465   S
C136       C846 1.540   1_556   S
C137       C476 1.540   1_565   S
C138       C962 1.540       .   S
Zn139      O143 1.942       .   S
Zn139      O144 1.922       .   S
Zn139      O148 1.922       .   S
Zn139      O155 1.922       .   S
Zn140      O143 1.942       .   S
Zn140      O145 1.922       .   S
Zn140      O147 1.922       .   S
Zn140      O151 1.922       .   S
Zn141      O143 1.942       .   S
Zn141      O146 1.922       .   S
Zn141      O149 1.922       .   S
Zn141      O152 1.922       .   S
Zn142      O143 1.942       .   S
Zn142      O150 1.922       .   S
Zn142      O153 1.922       .   S
Zn142      O154 1.922       .   S
O144       C156 1.304       .   A
O145       C157 1.304       .   A
O146       C158 1.304       .   A
O147       C156 1.304       .   A
O148       C158 1.304       .   A
O149       C157 1.304       .   A
O150       C159 1.304       .   A
O151       C160 1.304       .   A
O152       C159 1.304       .   A
O153       C160 1.304       .   A
O154       C161 1.304       .   A
O155       C161 1.304       .   A
C156       C629 1.540   1_455   S
C157       C883 1.540   1_545   S
C158      C1036 1.540       .   S
C159       C666 1.540       .   S
C160       C999 1.540       .   S
C161       C920 1.540       .   S
Zn162      O166 1.942       .   S
Zn162      O167 1.922       .   S
Zn162      O171 1.922       .   S
Zn162      O178 1.922       .   S
Zn163      O166 1.942       .   S
Zn163      O168 1.922       .   S
Zn163      O170 1.922       .   S
Zn163      O174 1.922       .   S
Zn164      O166 1.942       .   S
Zn164      O169 1.922       .   S
Zn164      O172 1.922       .   S
Zn164      O175 1.922       .   S
Zn165      O166 1.942       .   S
Zn165      O173 1.922       .   S
Zn165      O176 1.922       .   S
Zn165      O177 1.922       .   S
O167       C179 1.304       .   A
O168       C180 1.304       .   A
O169       C181 1.304       .   A
O170       C179 1.304       .   A
O171       C181 1.304       .   A
O172       C180 1.304       .   A
O173       C182 1.304       .   A
O174       C183 1.304       .   A
O175       C182 1.304       .   A
O176       C183 1.304       .   A
O177       C184 1.304       .   A
O178       C184 1.304       .   A
C179       C994 1.540       .   S
C180       C735 1.540   1_455   S
C181      C1031 1.540       .   S
C182       C957 1.540   1_545   S
C183      C1068 1.540   1_556   S
C184       C772 1.540       .   S
C1036     C1037 0.031       .   A
C1036     C1041 0.031       .   A
C1037     C1038 0.030       .   A
C1037     C1044 0.035       .   A
C1038     C1039 0.031       .   A
C1038     H1043 0.025       .   A
C1039     C1040 0.031       .   A
C1039     C1042 0.035       .   A
C1040     C1041 0.031       .   A
C1040     N1046 0.031       .   A
C1041     H1045 0.025       .   A
C1042     O1049 0.034       .   A
C1042     C1051 0.035       .   A
C1042     H1059 0.025       .   A
C1044     H1070 0.025       .   A
C1044     H1071 0.025       .   A
C1044     H1072 0.025       .   A
N1046     H1047 0.023       .   A
N1046     H1048 0.023       .   A
O1049     C1058 0.034       .   A
C1050     C1051 0.035       .   A
C1050     H1054 0.025       .   A
C1050     H1055 0.025       .   A
C1050     C1058 0.035       .   A
C1051     H1053 0.025       .   A
C1051     H1056 0.025       .   A
C1052     C1058 0.036       .   A
C1052     O1060 0.033       .   A
C1052     C1062 0.035       .   A
C1052     H1069 0.025       .   A
H1057     C1058 0.025       .   A
O1060     C1068 0.033       .   A
C1061     C1062 0.035       .   A
C1061     H1064 0.025       .   A
C1061     H1065 0.025       .   A
C1061     C1068 0.035       .   A
C1062     H1063 0.025       .   A
C1062     H1066 0.025       .   A
H1067     C1068 0.025       .   A
C999      C1000 0.031       .   A
C999      C1004 0.031       .   A
C1000     C1001 0.030       .   A
C1000     C1007 0.035       .   A
C1001     C1002 0.031       .   A
C1001     H1006 0.025       .   A
C1002     C1003 0.031       .   A
C1002     C1005 0.035       .   A
C1003     C1004 0.031       .   A
C1003     N1009 0.031       .   A
C1004     H1008 0.025       .   A
C1005     O1012 0.034       .   A
C1005     C1014 0.035       .   A
C1005     H1022 0.025       .   A
C1007     H1033 0.025       .   A
C1007     H1034 0.025       .   A
C1007     H1035 0.025       .   A
N1009     H1010 0.023       .   A
N1009     H1011 0.023       .   A
O1012     C1021 0.034       .   A
C1013     C1014 0.035       .   A
C1013     H1017 0.025       .   A
C1013     H1018 0.025       .   A
C1013     C1021 0.035       .   A
C1014     H1016 0.025       .   A
C1014     H1019 0.025       .   A
C1015     C1021 0.036       .   A
C1015     O1023 0.033       .   A
C1015     C1025 0.035       .   A
C1015     H1032 0.025       .   A
H1020     C1021 0.025       .   A
O1023     C1031 0.033       .   A
C1024     C1025 0.035       .   A
C1024     H1027 0.025       .   A
C1024     H1028 0.025       .   A
C1024     C1031 0.035       .   A
C1025     H1026 0.025       .   A
C1025     H1029 0.025       .   A
H1030     C1031 0.025       .   A
C962       C963 0.031       .   A
C962       C967 0.031       .   A
C963       C964 0.030       .   A
C963       C970 0.035       .   A
C964       C965 0.031       .   A
C964       H969 0.025       .   A
C965       C966 0.031       .   A
C965       C968 0.035       .   A
C966       C967 0.031       .   A
C966       N972 0.031       .   A
C967       H971 0.025       .   A
C968       O975 0.034       .   A
C968       C977 0.035       .   A
C968       H985 0.025       .   A
C970       H996 0.025       .   A
C970       H997 0.025       .   A
C970       H998 0.025       .   A
N972       H973 0.023       .   A
N972       H974 0.023       .   A
O975       C984 0.034       .   A
C976       C977 0.035       .   A
C976       H980 0.025       .   A
C976       H981 0.025       .   A
C976       C984 0.035       .   A
C977       H979 0.025       .   A
C977       H982 0.025       .   A
C978       C984 0.036       .   A
C978       O986 0.033       .   A
C978       C988 0.035       .   A
C978       H995 0.025       .   A
H983       C984 0.025       .   A
O986       C994 0.033       .   A
C987       C988 0.035       .   A
C987       H990 0.025       .   A
C987       H991 0.025       .   A
C987       C994 0.035       .   A
C988       H989 0.025       .   A
C988       H992 0.025       .   A
H993       C994 0.025       .   A
C925       C926 0.031       .   A
C925       C930 0.031       .   A
C926       C927 0.030       .   A
C926       C933 0.035       .   A
C927       C928 0.031       .   A
C927       H932 0.025       .   A
C928       C929 0.031       .   A
C928       C931 0.035       .   A
C929       C930 0.031       .   A
C929       N935 0.031       .   A
C930       H934 0.025       .   A
C931       O938 0.034       .   A
C931       C940 0.035       .   A
C931       H948 0.025       .   A
C933       H959 0.025       .   A
C933       H960 0.025       .   A
C933       H961 0.025       .   A
N935       H936 0.023       .   A
N935       H937 0.023       .   A
O938       C947 0.034       .   A
C939       C940 0.035       .   A
C939       H943 0.025       .   A
C939       H944 0.025       .   A
C939       C947 0.035       .   A
C940       H942 0.025       .   A
C940       H945 0.025       .   A
C941       C947 0.036       .   A
C941       O949 0.033       .   A
C941       C951 0.035       .   A
C941       H958 0.025       .   A
H946       C947 0.025       .   A
O949       C957 0.033       .   A
C950       C951 0.035       .   A
C950       H953 0.025       .   A
C950       H954 0.025       .   A
C950       C957 0.035       .   A
C951       H952 0.025       .   A
C951       H955 0.025       .   A
H956       C957 0.025       .   A
C888       C889 0.031       .   A
C888       C893 0.031       .   A
C889       C890 0.030       .   A
C889       C896 0.035       .   A
C890       C891 0.031       .   A
C890       H895 0.025       .   A
C891       C892 0.031       .   A
C891       C894 0.035       .   A
C892       C893 0.031       .   A
C892       N898 0.031       .   A
C893       H897 0.025       .   A
C894       O901 0.034       .   A
C894       C903 0.035       .   A
C894       H911 0.025       .   A
C896       H922 0.025       .   A
C896       H923 0.025       .   A
C896       H924 0.025       .   A
N898       H899 0.023       .   A
N898       H900 0.023       .   A
O901       C910 0.034       .   A
C902       C903 0.035       .   A
C902       H906 0.025       .   A
C902       H907 0.025       .   A
C902       C910 0.035       .   A
C903       H905 0.025       .   A
C903       H908 0.025       .   A
C904       C910 0.036       .   A
C904       O912 0.033       .   A
C904       C914 0.035       .   A
C904       H921 0.025       .   A
H909       C910 0.025       .   A
O912       C920 0.033       .   A
C913       C914 0.035       .   A
C913       H916 0.025       .   A
C913       H917 0.025       .   A
C913       C920 0.035       .   A
C914       H915 0.025       .   A
C914       H918 0.025       .   A
H919       C920 0.025       .   A
C851       C852 0.031       .   A
C851       C856 0.031       .   A
C852       C853 0.030       .   A
C852       C859 0.035       .   A
C853       C854 0.031       .   A
C853       H858 0.025       .   A
C854       C855 0.031       .   A
C854       C857 0.035       .   A
C855       C856 0.031       .   A
C855       N861 0.031       .   A
C856       H860 0.025       .   A
C857       O864 0.034       .   A
C857       C866 0.035       .   A
C857       H874 0.025       .   A
C859       H885 0.025       .   A
C859       H886 0.025       .   A
C859       H887 0.025       .   A
N861       H862 0.023       .   A
N861       H863 0.023       .   A
O864       C873 0.034       .   A
C865       C866 0.035       .   A
C865       H869 0.025       .   A
C865       H870 0.025       .   A
C865       C873 0.035       .   A
C866       H868 0.025       .   A
C866       H871 0.025       .   A
C867       C873 0.036       .   A
C867       O875 0.033       .   A
C867       C877 0.035       .   A
C867       H884 0.025       .   A
H872       C873 0.025       .   A
O875       C883 0.033       .   A
C876       C877 0.035       .   A
C876       H879 0.025       .   A
C876       H880 0.025       .   A
C876       C883 0.035       .   A
C877       H878 0.025       .   A
C877       H881 0.025       .   A
H882       C883 0.025       .   A
C814       C815 0.031       .   A
C814       C819 0.031       .   A
C815       C816 0.030       .   A
C815       C822 0.035       .   A
C816       C817 0.031       .   A
C816       H821 0.025       .   A
C817       C818 0.031       .   A
C817       C820 0.035       .   A
C818       C819 0.031       .   A
C818       N824 0.031       .   A
C819       H823 0.025       .   A
C820       O827 0.034       .   A
C820       C829 0.035       .   A
C820       H837 0.025       .   A
C822       H848 0.025       .   A
C822       H849 0.025       .   A
C822       H850 0.025       .   A
N824       H825 0.023       .   A
N824       H826 0.023       .   A
O827       C836 0.034       .   A
C828       C829 0.035       .   A
C828       H832 0.025       .   A
C828       H833 0.025       .   A
C828       C836 0.035       .   A
C829       H831 0.025       .   A
C829       H834 0.025       .   A
C830       C836 0.036       .   A
C830       O838 0.033       .   A
C830       C840 0.035       .   A
C830       H847 0.025       .   A
H835       C836 0.025       .   A
O838       C846 0.033       .   A
C839       C840 0.035       .   A
C839       H842 0.025       .   A
C839       H843 0.025       .   A
C839       C846 0.035       .   A
C840       H841 0.025       .   A
C840       H844 0.025       .   A
H845       C846 0.025       .   A
C777       C778 0.031       .   A
C777       C782 0.031       .   A
C778       C779 0.030       .   A
C778       C785 0.035       .   A
C779       C780 0.031       .   A
C779       H784 0.025       .   A
C780       C781 0.031       .   A
C780       C783 0.035       .   A
C781       C782 0.031       .   A
C781       N787 0.031       .   A
C782       H786 0.025       .   A
C783       O790 0.034       .   A
C783       C792 0.035       .   A
C783       H800 0.025       .   A
C785       H811 0.025       .   A
C785       H812 0.025       .   A
C785       H813 0.025       .   A
N787       H788 0.023       .   A
N787       H789 0.023       .   A
O790       C799 0.034       .   A
C791       C792 0.035       .   A
C791       H795 0.025       .   A
C791       H796 0.025       .   A
C791       C799 0.035       .   A
C792       H794 0.025       .   A
C792       H797 0.025       .   A
C793       C799 0.036       .   A
C793       O801 0.033       .   A
C793       C803 0.035       .   A
C793       H810 0.025       .   A
H798       C799 0.025       .   A
O801       C809 0.033       .   A
C802       C803 0.035       .   A
C802       H805 0.025       .   A
C802       H806 0.025       .   A
C802       C809 0.035       .   A
C803       H804 0.025       .   A
C803       H807 0.025       .   A
H808       C809 0.025       .   A
C740       C741 0.031       .   A
C740       C745 0.031       .   A
C741       C742 0.030       .   A
C741       C748 0.035       .   A
C742       C743 0.031       .   A
C742       H747 0.025       .   A
C743       C744 0.031       .   A
C743       C746 0.035       .   A
C744       C745 0.031       .   A
C744       N750 0.031       .   A
C745       H749 0.025       .   A
C746       O753 0.034       .   A
C746       C755 0.035       .   A
C746       H763 0.025       .   A
C748       H774 0.025       .   A
C748       H775 0.025       .   A
C748       H776 0.025       .   A
N750       H751 0.023       .   A
N750       H752 0.023       .   A
O753       C762 0.034       .   A
C754       C755 0.035       .   A
C754       H758 0.025       .   A
C754       H759 0.025       .   A
C754       C762 0.035       .   A
C755       H757 0.025       .   A
C755       H760 0.025       .   A
C756       C762 0.036       .   A
C756       O764 0.033       .   A
C756       C766 0.035       .   A
C756       H773 0.025       .   A
H761       C762 0.025       .   A
O764       C772 0.033       .   A
C765       C766 0.035       .   A
C765       H768 0.025       .   A
C765       H769 0.025       .   A
C765       C772 0.035       .   A
C766       H767 0.025       .   A
C766       H770 0.025       .   A
H771       C772 0.025       .   A
C703       C704 0.031       .   A
C703       C708 0.031       .   A
C704       C705 0.030       .   A
C704       C711 0.035       .   A
C705       C706 0.031       .   A
C705       H710 0.025       .   A
C706       C707 0.031       .   A
C706       C709 0.035       .   A
C707       C708 0.031       .   A
C707       N713 0.031       .   A
C708       H712 0.025       .   A
C709       O716 0.034       .   A
C709       C718 0.035       .   A
C709       H726 0.025       .   A
C711       H737 0.025       .   A
C711       H738 0.025       .   A
C711       H739 0.025       .   A
N713       H714 0.023       .   A
N713       H715 0.023       .   A
O716       C725 0.034       .   A
C717       C718 0.035       .   A
C717       H721 0.025       .   A
C717       H722 0.025       .   A
C717       C725 0.035       .   A
C718       H720 0.025       .   A
C718       H723 0.025       .   A
C719       C725 0.036       .   A
C719       O727 0.033       .   A
C719       C729 0.035       .   A
C719       H736 0.025       .   A
H724       C725 0.025       .   A
O727       C735 0.033       .   A
C728       C729 0.035       .   A
C728       H731 0.025       .   A
C728       H732 0.025       .   A
C728       C735 0.035       .   A
C729       H730 0.025       .   A
C729       H733 0.025       .   A
H734       C735 0.025       .   A
C666       C667 0.031       .   A
C666       C671 0.031       .   A
C667       C668 0.030       .   A
C667       C674 0.035       .   A
C668       C669 0.031       .   A
C668       H673 0.025       .   A
C669       C670 0.031       .   A
C669       C672 0.035       .   A
C670       C671 0.031       .   A
C670       N676 0.031       .   A
C671       H675 0.025       .   A
C672       O679 0.034       .   A
C672       C681 0.035       .   A
C672       H689 0.025       .   A
C674       H700 0.025       .   A
C674       H701 0.025       .   A
C674       H702 0.025       .   A
N676       H677 0.023       .   A
N676       H678 0.023       .   A
O679       C688 0.034       .   A
C680       C681 0.035       .   A
C680       H684 0.025       .   A
C680       H685 0.025       .   A
C680       C688 0.035       .   A
C681       H683 0.025       .   A
C681       H686 0.025       .   A
C682       C688 0.036       .   A
C682       O690 0.033       .   A
C682       C692 0.035       .   A
C682       H699 0.025       .   A
H687       C688 0.025       .   A
O690       C698 0.033       .   A
C691       C692 0.035       .   A
C691       H694 0.025       .   A
C691       H695 0.025       .   A
C691       C698 0.035       .   A
C692       H693 0.025       .   A
C692       H696 0.025       .   A
H697       C698 0.025       .   A
C629       C630 0.031       .   A
C629       C634 0.031       .   A
C630       C631 0.030       .   A
C630       C637 0.035       .   A
C631       C632 0.031       .   A
C631       H636 0.025       .   A
C632       C633 0.031       .   A
C632       C635 0.035       .   A
C633       C634 0.031       .   A
C633       N639 0.031       .   A
C634       H638 0.025       .   A
C635       O642 0.034       .   A
C635       C644 0.035       .   A
C635       H652 0.025       .   A
C637       H663 0.025       .   A
C637       H664 0.025       .   A
C637       H665 0.025       .   A
N639       H640 0.023       .   A
N639       H641 0.023       .   A
O642       C651 0.034       .   A
C643       C644 0.035       .   A
C643       H647 0.025       .   A
C643       H648 0.025       .   A
C643       C651 0.035       .   A
C644       H646 0.025       .   A
C644       H649 0.025       .   A
C645       C651 0.036       .   A
C645       O653 0.033       .   A
C645       C655 0.035       .   A
C645       H662 0.025       .   A
H650       C651 0.025       .   A
O653       C661 0.033       .   A
C654       C655 0.035       .   A
C654       H657 0.025       .   A
C654       H658 0.025       .   A
C654       C661 0.035       .   A
C655       H656 0.025       .   A
C655       H659 0.025       .   A
H660       C661 0.025       .   A
C592       C593 0.031       .   A
C592       C597 0.031       .   A
C593       C594 0.030       .   A
C593       C600 0.035       .   A
C594       C595 0.031       .   A
C594       H599 0.025       .   A
C595       C596 0.031       .   A
C595       C598 0.035       .   A
C596       C597 0.031       .   A
C596       N602 0.031       .   A
C597       H601 0.025       .   A
C598       O605 0.034       .   A
C598       C607 0.035       .   A
C598       H615 0.025       .   A
C600       H626 0.025       .   A
C600       H627 0.025       .   A
C600       H628 0.025       .   A
N602       H603 0.023       .   A
N602       H604 0.023       .   A
O605       C614 0.034       .   A
C606       C607 0.035       .   A
C606       H610 0.025       .   A
C606       H611 0.025       .   A
C606       C614 0.035       .   A
C607       H609 0.025       .   A
C607       H612 0.025       .   A
C608       C614 0.036       .   A
C608       O616 0.033       .   A
C608       C618 0.035       .   A
C608       H625 0.025       .   A
H613       C614 0.025       .   A
O616       C624 0.033       .   A
C617       C618 0.035       .   A
C617       H620 0.025       .   A
C617       H621 0.025       .   A
C617       C624 0.035       .   A
C618       H619 0.025       .   A
C618       H622 0.025       .   A
H623       C624 0.025       .   A
C555       C556 0.031       .   A
C555       C560 0.031       .   A
C556       C557 0.030       .   A
C556       C563 0.035       .   A
C557       C558 0.031       .   A
C557       H562 0.025       .   A
C558       C559 0.031       .   A
C558       C561 0.035       .   A
C559       C560 0.031       .   A
C559       N565 0.031       .   A
C560       H564 0.025       .   A
C561       O568 0.034       .   A
C561       C570 0.035       .   A
C561       H578 0.025       .   A
C563       H589 0.025       .   A
C563       H590 0.025       .   A
C563       H591 0.025       .   A
N565       H566 0.023       .   A
N565       H567 0.023       .   A
O568       C577 0.034       .   A
C569       C570 0.035       .   A
C569       H573 0.025       .   A
C569       H574 0.025       .   A
C569       C577 0.035       .   A
C570       H572 0.025       .   A
C570       H575 0.025       .   A
C571       C577 0.036       .   A
C571       O579 0.033       .   A
C571       C581 0.035       .   A
C571       H588 0.025       .   A
H576       C577 0.025       .   A
O579       C587 0.033       .   A
C580       C581 0.035       .   A
C580       H583 0.025       .   A
C580       H584 0.025       .   A
C580       C587 0.035       .   A
C581       H582 0.025       .   A
C581       H585 0.025       .   A
H586       C587 0.025       .   A
C518       C519 0.031       .   A
C518       C523 0.031       .   A
C519       C520 0.030       .   A
C519       C526 0.035       .   A
C520       C521 0.031       .   A
C520       H525 0.025       .   A
C521       C522 0.031       .   A
C521       C524 0.035       .   A
C522       C523 0.031       .   A
C522       N528 0.031       .   A
C523       H527 0.025       .   A
C524       O531 0.034       .   A
C524       C533 0.035       .   A
C524       H541 0.025       .   A
C526       H552 0.025       .   A
C526       H553 0.025       .   A
C526       H554 0.025       .   A
N528       H529 0.023       .   A
N528       H530 0.023       .   A
O531       C540 0.034       .   A
C532       C533 0.035       .   A
C532       H536 0.025       .   A
C532       H537 0.025       .   A
C532       C540 0.035       .   A
C533       H535 0.025       .   A
C533       H538 0.025       .   A
C534       C540 0.036       .   A
C534       O542 0.033       .   A
C534       C544 0.035       .   A
C534       H551 0.025       .   A
H539       C540 0.025       .   A
O542       C550 0.033       .   A
C543       C544 0.035       .   A
C543       H546 0.025       .   A
C543       H547 0.025       .   A
C543       C550 0.035       .   A
C544       H545 0.025       .   A
C544       H548 0.025       .   A
H549       C550 0.025       .   A
C481       C482 0.031       .   A
C481       C486 0.031       .   A
C482       C483 0.030       .   A
C482       C489 0.035       .   A
C483       C484 0.031       .   A
C483       H488 0.025       .   A
C484       C485 0.031       .   A
C484       C487 0.035       .   A
C485       C486 0.031       .   A
C485       N491 0.031       .   A
C486       H490 0.025       .   A
C487       O494 0.034       .   A
C487       C496 0.035       .   A
C487       H504 0.025       .   A
C489       H515 0.025       .   A
C489       H516 0.025       .   A
C489       H517 0.025       .   A
N491       H492 0.023       .   A
N491       H493 0.023       .   A
O494       C503 0.034       .   A
C495       C496 0.035       .   A
C495       H499 0.025       .   A
C495       H500 0.025       .   A
C495       C503 0.035       .   A
C496       H498 0.025       .   A
C496       H501 0.025       .   A
C497       C503 0.036       .   A
C497       O505 0.033       .   A
C497       C507 0.035       .   A
C497       H514 0.025       .   A
H502       C503 0.025       .   A
O505       C513 0.033       .   A
C506       C507 0.035       .   A
C506       H509 0.025       .   A
C506       H510 0.025       .   A
C506       C513 0.035       .   A
C507       H508 0.025       .   A
C507       H511 0.025       .   A
H512       C513 0.025       .   A
C444       C445 0.031       .   A
C444       C449 0.031       .   A
C445       C446 0.030       .   A
C445       C452 0.035       .   A
C446       C447 0.031       .   A
C446       H451 0.025       .   A
C447       C448 0.031       .   A
C447       C450 0.035       .   A
C448       C449 0.031       .   A
C448       N454 0.031       .   A
C449       H453 0.025       .   A
C450       O457 0.034       .   A
C450       C459 0.035       .   A
C450       H467 0.025       .   A
C452       H478 0.025       .   A
C452       H479 0.025       .   A
C452       H480 0.025       .   A
N454       H455 0.023       .   A
N454       H456 0.023       .   A
O457       C466 0.034       .   A
C458       C459 0.035       .   A
C458       H462 0.025       .   A
C458       H463 0.025       .   A
C458       C466 0.035       .   A
C459       H461 0.025       .   A
C459       H464 0.025       .   A
C460       C466 0.036       .   A
C460       O468 0.033       .   A
C460       C470 0.035       .   A
C460       H477 0.025       .   A
H465       C466 0.025       .   A
O468       C476 0.033       .   A
C469       C470 0.035       .   A
C469       H472 0.025       .   A
C469       H473 0.025       .   A
C469       C476 0.035       .   A
C470       H471 0.025       .   A
C470       H474 0.025       .   A
H475       C476 0.025       .   A
C407       C408 0.031       .   A
C407       C412 0.031       .   A
C408       C409 0.030       .   A
C408       C415 0.035       .   A
C409       C410 0.031       .   A
C409       H414 0.025       .   A
C410       C411 0.031       .   A
C410       C413 0.035       .   A
C411       C412 0.031       .   A
C411       N417 0.031       .   A
C412       H416 0.025       .   A
C413       O420 0.034       .   A
C413       C422 0.035       .   A
C413       H430 0.025       .   A
C415       H441 0.025       .   A
C415       H442 0.025       .   A
C415       H443 0.025       .   A
N417       H418 0.023       .   A
N417       H419 0.023       .   A
O420       C429 0.034       .   A
C421       C422 0.035       .   A
C421       H425 0.025       .   A
C421       H426 0.025       .   A
C421       C429 0.035       .   A
C422       H424 0.025       .   A
C422       H427 0.025       .   A
C423       C429 0.036       .   A
C423       O431 0.033       .   A
C423       C433 0.035       .   A
C423       H440 0.025       .   A
H428       C429 0.025       .   A
O431       C439 0.033       .   A
C432       C433 0.035       .   A
C432       H435 0.025       .   A
C432       H436 0.025       .   A
C432       C439 0.035       .   A
C433       H434 0.025       .   A
C433       H437 0.025       .   A
H438       C439 0.025       .   A
C370       C371 0.031       .   A
C370       C375 0.031       .   A
C371       C372 0.030       .   A
C371       C378 0.035       .   A
C372       C373 0.031       .   A
C372       H377 0.025       .   A
C373       C374 0.031       .   A
C373       C376 0.035       .   A
C374       C375 0.031       .   A
C374       N380 0.031       .   A
C375       H379 0.025       .   A
C376       O383 0.034       .   A
C376       C385 0.035       .   A
C376       H393 0.025       .   A
C378       H404 0.025       .   A
C378       H405 0.025       .   A
C378       H406 0.025       .   A
N380       H381 0.023       .   A
N380       H382 0.023       .   A
O383       C392 0.034       .   A
C384       C385 0.035       .   A
C384       H388 0.025       .   A
C384       H389 0.025       .   A
C384       C392 0.035       .   A
C385       H387 0.025       .   A
C385       H390 0.025       .   A
C386       C392 0.036       .   A
C386       O394 0.033       .   A
C386       C396 0.035       .   A
C386       H403 0.025       .   A
H391       C392 0.025       .   A
O394       C402 0.033       .   A
C395       C396 0.035       .   A
C395       H398 0.025       .   A
C395       H399 0.025       .   A
C395       C402 0.035       .   A
C396       H397 0.025       .   A
C396       H400 0.025       .   A
H401       C402 0.025       .   A
C333       C334 0.031       .   A
C333       C338 0.031       .   A
C334       C335 0.030       .   A
C334       C341 0.035       .   A
C335       C336 0.031       .   A
C335       H340 0.025       .   A
C336       C337 0.031       .   A
C336       C339 0.035       .   A
C337       C338 0.031       .   A
C337       N343 0.031       .   A
C338       H342 0.025       .   A
C339       O346 0.034       .   A
C339       C348 0.035       .   A
C339       H356 0.025       .   A
C341       H367 0.025       .   A
C341       H368 0.025       .   A
C341       H369 0.025       .   A
N343       H344 0.023       .   A
N343       H345 0.023       .   A
O346       C355 0.034       .   A
C347       C348 0.035       .   A
C347       H351 0.025       .   A
C347       H352 0.025       .   A
C347       C355 0.035       .   A
C348       H350 0.025       .   A
C348       H353 0.025       .   A
C349       C355 0.036       .   A
C349       O357 0.033       .   A
C349       C359 0.035       .   A
C349       H366 0.025       .   A
H354       C355 0.025       .   A
O357       C365 0.033       .   A
C358       C359 0.035       .   A
C358       H361 0.025       .   A
C358       H362 0.025       .   A
C358       C365 0.035       .   A
C359       H360 0.025       .   A
C359       H363 0.025       .   A
H364       C365 0.025       .   A
C296       C297 0.031       .   A
C296       C301 0.031       .   A
C297       C298 0.030       .   A
C297       C304 0.035       .   A
C298       C299 0.031       .   A
C298       H303 0.025       .   A
C299       C300 0.031       .   A
C299       C302 0.035       .   A
C300       C301 0.031       .   A
C300       N306 0.031       .   A
C301       H305 0.025       .   A
C302       O309 0.034       .   A
C302       C311 0.035       .   A
C302       H319 0.025       .   A
C304       H330 0.025       .   A
C304       H331 0.025       .   A
C304       H332 0.025       .   A
N306       H307 0.023       .   A
N306       H308 0.023       .   A
O309       C318 0.034       .   A
C310       C311 0.035       .   A
C310       H314 0.025       .   A
C310       H315 0.025       .   A
C310       C318 0.035       .   A
C311       H313 0.025       .   A
C311       H316 0.025       .   A
C312       C318 0.036       .   A
C312       O320 0.033       .   A
C312       C322 0.035       .   A
C312       H329 0.025       .   A
H317       C318 0.025       .   A
O320       C328 0.033       .   A
C321       C322 0.035       .   A
C321       H324 0.025       .   A
C321       H325 0.025       .   A
C321       C328 0.035       .   A
C322       H323 0.025       .   A
C322       H326 0.025       .   A
H327       C328 0.025       .   A
C259       C260 0.031       .   A
C259       C264 0.031       .   A
C260       C261 0.030       .   A
C260       C267 0.035       .   A
C261       C262 0.031       .   A
C261       H266 0.025       .   A
C262       C263 0.031       .   A
C262       C265 0.035       .   A
C263       C264 0.031       .   A
C263       N269 0.031       .   A
C264       H268 0.025       .   A
C265       O272 0.034       .   A
C265       C274 0.035       .   A
C265       H282 0.025       .   A
C267       H293 0.025       .   A
C267       H294 0.025       .   A
C267       H295 0.025       .   A
N269       H270 0.023       .   A
N269       H271 0.023       .   A
O272       C281 0.034       .   A
C273       C274 0.035       .   A
C273       H277 0.025       .   A
C273       H278 0.025       .   A
C273       C281 0.035       .   A
C274       H276 0.025       .   A
C274       H279 0.025       .   A
C275       C281 0.036       .   A
C275       O283 0.033       .   A
C275       C285 0.035       .   A
C275       H292 0.025       .   A
H280       C281 0.025       .   A
O283       C291 0.033       .   A
C284       C285 0.035       .   A
C284       H287 0.025       .   A
C284       H288 0.025       .   A
C284       C291 0.035       .   A
C285       H286 0.025       .   A
C285       H289 0.025       .   A
H290       C291 0.025       .   A
C222       C223 0.031       .   A
C222       C227 0.031       .   A
C223       C224 0.030       .   A
C223       C230 0.035       .   A
C224       C225 0.031       .   A
C224       H229 0.025       .   A
C225       C226 0.031       .   A
C225       C228 0.035       .   A
C226       C227 0.031       .   A
C226       N232 0.031       .   A
C227       H231 0.025       .   A
C228       O235 0.034       .   A
C228       C237 0.035       .   A
C228       H245 0.025       .   A
C230       H256 0.025       .   A
C230       H257 0.025       .   A
C230       H258 0.025       .   A
N232       H233 0.023       .   A
N232       H234 0.023       .   A
O235       C244 0.034       .   A
C236       C237 0.035       .   A
C236       H240 0.025       .   A
C236       H241 0.025       .   A
C236       C244 0.035       .   A
C237       H239 0.025       .   A
C237       H242 0.025       .   A
C238       C244 0.036       .   A
C238       O246 0.033       .   A
C238       C248 0.035       .   A
C238       H255 0.025       .   A
H243       C244 0.025       .   A
O246       C254 0.033       .   A
C247       C248 0.035       .   A
C247       H250 0.025       .   A
C247       H251 0.025       .   A
C247       C254 0.035       .   A
C248       H249 0.025       .   A
C248       H252 0.025       .   A
H253       C254 0.025       .   A
C185       C186 0.031       .   A
C185       C190 0.031       .   A
C186       C187 0.030       .   A
C186       C193 0.035       .   A
C187       C188 0.031       .   A
C187       H192 0.025       .   A
C188       C189 0.031       .   A
C188       C191 0.035       .   A
C189       C190 0.031       .   A
C189       N195 0.031       .   A
C190       H194 0.025       .   A
C191       O198 0.034       .   A
C191       C200 0.035       .   A
C191       H208 0.025       .   A
C193       H219 0.025       .   A
C193       H220 0.025       .   A
C193       H221 0.025       .   A
N195       H196 0.023       .   A
N195       H197 0.023       .   A
O198       C207 0.034       .   A
C199       C200 0.035       .   A
C199       H203 0.025       .   A
C199       H204 0.025       .   A
C199       C207 0.035       .   A
C200       H202 0.025       .   A
C200       H205 0.025       .   A
C201       C207 0.036       .   A
C201       O209 0.033       .   A
C201       C211 0.035       .   A
C201       H218 0.025       .   A
H206       C207 0.025       .   A
O209       C217 0.033       .   A
C210       C211 0.035       .   A
C210       H213 0.025       .   A
C210       H214 0.025       .   A
C210       C217 0.035       .   A
C211       H212 0.025       .   A
C211       H215 0.025       .   A
H216       C217 0.025       .   A
