data_pcu_v1-6c_Zn_1_Ch_1-22_fer_tobacco
_audit_creation_date              2021-04-07
_audit_creation_method            'tobacco_3.0'
_symmetry_space_group_name_H-M    'P1'
_symmetry_Int_Tables_number       1
_symmetry_cell_setting            triclinic
loop_
_symmetry_equiv_pos_as_xyz
  x,y,z
_cell_length_a                    40.17111573555884
_cell_length_b                    40.17111573555884
_cell_length_c                    40.17111573555884
_cell_angle_alpha                 90.0
_cell_angle_beta                  90.0
_cell_angle_gamma                 90.0
loop_
_atom_site_label
_atom_site_type_symbol
_atom_site_fract_x
_atom_site_fract_y
_atom_site_fract_z
_atom_site_charge
Zn1       Zn   -0.0279106014   -0.0279106014    0.0279106014          1.4972
Zn2       Zn    0.0279106014    0.0279106014    0.0279106014          1.4936
Zn3       Zn    0.0279106014   -0.0279106014   -0.0279106014          1.4911
Zn4       Zn   -0.0279106014    0.0279106014   -0.0279106014          1.4948
O5         O    0.0000000000    0.0000000000    0.0000000000         -2.2624
O6         O   -0.0205122508   -0.0205122508    0.0745958867         -1.1688
O7         O    0.0745958867    0.0205122508    0.0205122508          -1.167
O8         O    0.0205122508   -0.0745958867   -0.0205122508         -1.1621
O9         O    0.0205122508    0.0205122508    0.0745958867         -1.1689
O10        O   -0.0205122508   -0.0745958867    0.0205122508         -1.1649
O11        O    0.0745958867   -0.0205122508   -0.0205122508         -1.1707
O12        O   -0.0205122508    0.0205122508   -0.0745958867         -1.1646
O13        O    0.0205122508    0.0745958867    0.0205122508         -1.1722
O14        O    0.0205122508   -0.0205122508   -0.0745958867         -1.1661
O15        O   -0.0205122508    0.0745958867   -0.0205122508         -1.1708
O16        O   -0.0745958867    0.0205122508   -0.0205122508         -1.1699
O17        O   -0.0745958867   -0.0205122508    0.0205122508         -1.1678
C18        C   -0.0000000000   -0.0000000000    0.0891884613          0.3501
C19        C    0.0891884613   -0.0000000000   -0.0000000000           0.355
C20        C   -0.0000000000   -0.0891884613    0.0000000000          0.3446
C21        C    0.0000000000    0.0000000000   -0.0891884613          0.3484
C22        C    0.0000000000    0.0891884613   -0.0000000000          0.3598
C23        C   -0.0891884613    0.0000000000    0.0000000000          0.3503
Zn24      Zn    0.9720893986    0.0279106014    0.4720893986          1.4972
Zn25      Zn    1.0279106014   -0.0279106014    0.4720893986          1.4936
Zn26      Zn    1.0279106014    0.0279106014    0.5279106014          1.4911
Zn27      Zn    0.9720893986   -0.0279106014    0.5279106014          1.4948
O28        O    1.0000000000    0.0000000000    0.5000000000         -2.2624
O29        O    0.9794877492    0.0205122508    0.4254041133         -1.1688
O30        O    1.0745958867   -0.0205122508    0.4794877492          -1.167
O31        O    1.0205122508    0.0745958867    0.5205122508         -1.1621
O32        O    1.0205122508   -0.0205122508    0.4254041133         -1.1689
O33        O    0.9794877492    0.0745958867    0.4794877492         -1.1649
O34        O    1.0745958867    0.0205122508    0.5205122508         -1.1707
O35        O    0.9794877492   -0.0205122508    0.5745958867         -1.1646
O36        O    1.0205122508   -0.0745958867    0.4794877492         -1.1722
O37        O    1.0205122508    0.0205122508    0.5745958867         -1.1661
O38        O    0.9794877492   -0.0745958867    0.5205122508         -1.1708
O39        O    0.9254041133   -0.0205122508    0.5205122508         -1.1699
O40        O    0.9254041133    0.0205122508    0.4794877492         -1.1678
C41        C    1.0000000000    0.0000000000    0.4108115387          0.3501
C42        C    1.0891884613    0.0000000000    0.5000000000           0.355
C43        C    1.0000000000    0.0891884613    0.5000000000          0.3446
C44        C    1.0000000000    0.0000000000    0.5891884613          0.3484
C45        C    1.0000000000   -0.0891884613    0.5000000000          0.3598
C46        C    0.9108115387    0.0000000000    0.5000000000          0.3503
Zn47      Zn    1.0279106014    0.4720893986    0.0279106014          1.4972
Zn48      Zn    0.9720893986    0.4720893986   -0.0279106014          1.4936
Zn49      Zn    0.9720893986    0.5279106014    0.0279106014          1.4911
Zn50      Zn    1.0279106014    0.5279106014   -0.0279106014          1.4948
O51        O    1.0000000000    0.5000000000    0.0000000000         -2.2624
O52        O    1.0205122508    0.4254041133    0.0205122508         -1.1688
O53        O    0.9254041133    0.4794877492   -0.0205122508          -1.167
O54        O    0.9794877492    0.5205122508    0.0745958867         -1.1621
O55        O    0.9794877492    0.4254041133   -0.0205122508         -1.1689
O56        O    1.0205122508    0.4794877492    0.0745958867         -1.1649
O57        O    0.9254041133    0.5205122508    0.0205122508         -1.1707
O58        O    1.0205122508    0.5745958867   -0.0205122508         -1.1646
O59        O    0.9794877492    0.4794877492   -0.0745958867         -1.1722
O60        O    0.9794877492    0.5745958867    0.0205122508         -1.1661
O61        O    1.0205122508    0.5205122508   -0.0745958867         -1.1708
O62        O    1.0745958867    0.5205122508   -0.0205122508         -1.1699
O63        O    1.0745958867    0.4794877492    0.0205122508         -1.1678
C64        C    1.0000000000    0.4108115387    0.0000000000          0.3501
C65        C    0.9108115387    0.5000000000    0.0000000000           0.355
C66        C    1.0000000000    0.5000000000    0.0891884613          0.3446
C67        C    1.0000000000    0.5891884613    0.0000000000          0.3484
C68        C    1.0000000000    0.5000000000   -0.0891884613          0.3598
C69        C    1.0891884613    0.5000000000    0.0000000000          0.3503
Zn70      Zn    0.9720893986    0.4720893986    0.5279106014          1.4972
Zn71      Zn    1.0279106014    0.4720893986    0.4720893986          1.4936
Zn72      Zn    0.9720893986    0.5279106014    0.4720893986          1.4911
Zn73      Zn    1.0279106014    0.5279106014    0.5279106014          1.4948
O74        O    1.0000000000    0.5000000000    0.5000000000         -2.2624
O75        O    0.9794877492    0.4254041133    0.5205122508         -1.1688
O76        O    1.0205122508    0.4794877492    0.4254041133          -1.167
O77        O    0.9254041133    0.5205122508    0.4794877492         -1.1621
O78        O    1.0205122508    0.4254041133    0.4794877492         -1.1689
O79        O    0.9254041133    0.4794877492    0.5205122508         -1.1649
O80        O    0.9794877492    0.5205122508    0.4254041133         -1.1707
O81        O    1.0205122508    0.5745958867    0.5205122508         -1.1646
O82        O    1.0745958867    0.4794877492    0.4794877492         -1.1722
O83        O    0.9794877492    0.5745958867    0.4794877492         -1.1661
O84        O    1.0745958867    0.5205122508    0.5205122508         -1.1708
O85        O    1.0205122508    0.5205122508    0.5745958867         -1.1699
O86        O    0.9794877492    0.4794877492    0.5745958867         -1.1678
C87        C    1.0000000000    0.4108115387    0.5000000000          0.3501
C88        C    1.0000000000    0.5000000000    0.4108115387           0.355
C89        C    0.9108115387    0.5000000000    0.5000000000          0.3446
C90        C    1.0000000000    0.5891884613    0.5000000000          0.3484
C91        C    1.0891884613    0.5000000000    0.5000000000          0.3598
C92        C    1.0000000000    0.5000000000    0.5891884613          0.3503
Zn93      Zn    0.4720893986    0.9720893986   -0.0279106014          1.4972
Zn94      Zn    0.4720893986    1.0279106014    0.0279106014          1.4936
Zn95      Zn    0.5279106014    0.9720893986    0.0279106014          1.4911
Zn96      Zn    0.5279106014    1.0279106014   -0.0279106014          1.4948
O97        O    0.5000000000    1.0000000000    0.0000000000         -2.2624
O98        O    0.4254041133    0.9794877492   -0.0205122508         -1.1688
O99        O    0.4794877492    1.0205122508    0.0745958867          -1.167
O100       O    0.5205122508    0.9254041133    0.0205122508         -1.1621
O101       O    0.4254041133    1.0205122508    0.0205122508         -1.1689
O102       O    0.4794877492    0.9254041133   -0.0205122508         -1.1649
O103       O    0.5205122508    0.9794877492    0.0745958867         -1.1707
O104       O    0.5745958867    1.0205122508   -0.0205122508         -1.1646
O105       O    0.4794877492    1.0745958867    0.0205122508         -1.1722
O106       O    0.5745958867    0.9794877492    0.0205122508         -1.1661
O107       O    0.5205122508    1.0745958867   -0.0205122508         -1.1708
O108       O    0.5205122508    1.0205122508   -0.0745958867         -1.1699
O109       O    0.4794877492    0.9794877492   -0.0745958867         -1.1678
C110       C    0.4108115387    1.0000000000    0.0000000000          0.3501
C111       C    0.5000000000    1.0000000000    0.0891884613           0.355
C112       C    0.5000000000    0.9108115387    0.0000000000          0.3446
C113       C    0.5891884613    1.0000000000    0.0000000000          0.3484
C114       C    0.5000000000    1.0891884613    0.0000000000          0.3598
C115       C    0.5000000000    1.0000000000   -0.0891884613          0.3503
Zn116     Zn    0.4720893986    1.0279106014    0.5279106014          1.4972
Zn117     Zn    0.4720893986    0.9720893986    0.4720893986          1.4936
Zn118     Zn    0.5279106014    1.0279106014    0.4720893986          1.4911
Zn119     Zn    0.5279106014    0.9720893986    0.5279106014          1.4948
O120       O    0.5000000000    1.0000000000    0.5000000000         -2.2624
O121       O    0.4254041133    1.0205122508    0.5205122508         -1.1688
O122       O    0.4794877492    0.9794877492    0.4254041133          -1.167
O123       O    0.5205122508    1.0745958867    0.4794877492         -1.1621
O124       O    0.4254041133    0.9794877492    0.4794877492         -1.1689
O125       O    0.4794877492    1.0745958867    0.5205122508         -1.1649
O126       O    0.5205122508    1.0205122508    0.4254041133         -1.1707
O127       O    0.5745958867    0.9794877492    0.5205122508         -1.1646
O128       O    0.4794877492    0.9254041133    0.4794877492         -1.1722
O129       O    0.5745958867    1.0205122508    0.4794877492         -1.1661
O130       O    0.5205122508    0.9254041133    0.5205122508         -1.1708
O131       O    0.5205122508    0.9794877492    0.5745958867         -1.1699
O132       O    0.4794877492    1.0205122508    0.5745958867         -1.1678
C133       C    0.4108115387    1.0000000000    0.5000000000          0.3501
C134       C    0.5000000000    1.0000000000    0.4108115387           0.355
C135       C    0.5000000000    1.0891884613    0.5000000000          0.3446
C136       C    0.5891884613    1.0000000000    0.5000000000          0.3484
C137       C    0.5000000000    0.9108115387    0.5000000000          0.3598
C138       C    0.5000000000    1.0000000000    0.5891884613          0.3503
Zn139     Zn    0.4720893986    0.5279106014   -0.0279106014          1.4972
Zn140     Zn    0.4720893986    0.4720893986    0.0279106014          1.4936
Zn141     Zn    0.5279106014    0.4720893986   -0.0279106014          1.4911
Zn142     Zn    0.5279106014    0.5279106014    0.0279106014          1.4948
O143       O    0.5000000000    0.5000000000    0.0000000000         -2.2624
O144       O    0.4254041133    0.5205122508   -0.0205122508         -1.1688
O145       O    0.4794877492    0.4254041133    0.0205122508          -1.167
O146       O    0.5205122508    0.4794877492   -0.0745958867         -1.1621
O147       O    0.4254041133    0.4794877492    0.0205122508         -1.1689
O148       O    0.4794877492    0.5205122508   -0.0745958867         -1.1649
O149       O    0.5205122508    0.4254041133   -0.0205122508         -1.1707
O150       O    0.5745958867    0.5205122508    0.0205122508         -1.1646
O151       O    0.4794877492    0.4794877492    0.0745958867         -1.1722
O152       O    0.5745958867    0.4794877492   -0.0205122508         -1.1661
O153       O    0.5205122508    0.5205122508    0.0745958867         -1.1708
O154       O    0.5205122508    0.5745958867    0.0205122508         -1.1699
O155       O    0.4794877492    0.5745958867   -0.0205122508         -1.1678
C156       C    0.4108115387    0.5000000000    0.0000000000          0.3501
C157       C    0.5000000000    0.4108115387    0.0000000000           0.355
C158       C    0.5000000000    0.5000000000   -0.0891884613          0.3446
C159       C    0.5891884613    0.5000000000    0.0000000000          0.3484
C160       C    0.5000000000    0.5000000000    0.0891884613          0.3598
C161       C    0.5000000000    0.5891884613    0.0000000000          0.3503
Zn162     Zn    0.4720893986    0.4720893986    0.5279106014          1.4972
Zn163     Zn    0.4720893986    0.5279106014    0.4720893986          1.4936
Zn164     Zn    0.5279106014    0.5279106014    0.5279106014          1.4911
Zn165     Zn    0.5279106014    0.4720893986    0.4720893986          1.4948
O166       O    0.5000000000    0.5000000000    0.5000000000         -2.2624
O167       O    0.4254041133    0.4794877492    0.5205122508         -1.1688
O168       O    0.4794877492    0.5745958867    0.4794877492          -1.167
O169       O    0.5205122508    0.5205122508    0.5745958867         -1.1621
O170       O    0.4254041133    0.5205122508    0.4794877492         -1.1689
O171       O    0.4794877492    0.4794877492    0.5745958867         -1.1649
O172       O    0.5205122508    0.5745958867    0.5205122508         -1.1707
O173       O    0.5745958867    0.4794877492    0.4794877492         -1.1646
O174       O    0.4794877492    0.5205122508    0.4254041133         -1.1722
O175       O    0.5745958867    0.5205122508    0.5205122508         -1.1661
O176       O    0.5205122508    0.4794877492    0.4254041133         -1.1708
O177       O    0.5205122508    0.4254041133    0.4794877492         -1.1699
O178       O    0.4794877492    0.4254041133    0.5205122508         -1.1678
C179       C    0.4108115387    0.5000000000    0.5000000000          0.3501
C180       C    0.5000000000    0.5891884613    0.5000000000           0.355
C181       C    0.5000000000    0.5000000000    0.5891884613          0.3446
C182       C    0.5891884613    0.5000000000    0.5000000000          0.3484
C183       C    0.5000000000    0.5000000000    0.4108115387          0.3598
C184       C    0.5000000000    0.4108115387    0.5000000000          0.3503
C1013      C    0.5000000000    0.5000000000   -0.1275244639         -0.4074
C1014      C    0.4885827953    0.5304633103   -0.1359463156         -0.4181
C1015      C    0.4809779482    0.5371131976   -0.1679513635          0.5742
C1016      C    0.4850440890    0.5139170158   -0.1918645116         -0.4226
C1017      C    0.4952807750    0.4835251109   -0.1829480717         -0.4129
C1018      C    0.5023432258    0.4766034256   -0.1511527947         -0.4058
C1019      C    0.4793319150    0.5241532736   -0.2284095019          0.5714
N1020      N    0.4696259207    0.5677937308   -0.1759425450          0.5635
N1021      N    0.4842044208    0.5544363887   -0.1127669269         -0.4217
H1022      H    0.5115117460    0.4519058283   -0.1448428453         -0.3972
H1023      H    0.4987286749    0.4643551779   -0.2017643406         -0.4102
O1024      O    0.4746375016    0.4993065497   -0.2546661327          0.5664
C1025      C    0.5087995101    0.5390978965   -0.2795315254         -0.4019
C1026      C    0.5083171687    0.5456340424   -0.2419294506         -0.4016
C1027      C    0.4709896469    0.5039769536   -0.3197197305          0.5618
H1028      H    0.5320508852    0.5384866986   -0.2307121568         -0.3792
H1029      H    0.5302369380    0.5236707541   -0.2861133688          -0.382
H1030      H    0.5095321331    0.5622139650   -0.2937904980         -0.4014
H1031      H    0.5037416535    0.5719420977   -0.2367705964         -0.4057
H1032      H    0.4557975726    0.5377654334   -0.2821359861          0.5484
C1033      C    0.4762441377    0.5199060178   -0.2846716460          0.5675
H1034      H    0.4565230808    0.5390627395   -0.2291104026          0.5501
O1035      O    0.5009338873    0.4923330502   -0.3366544394         -0.4105
C1036      C    0.4677057111    0.5196923444   -0.3779922482          0.5577
C1037      C    0.4579719052    0.5312993598   -0.3433024766          0.5493
H1038      H    0.4703913991    0.5549845200   -0.3382643939          0.5611
H1039      H    0.4715632247    0.5406562675   -0.3949022716          0.5611
H1040      H    0.4481566658    0.5036317053   -0.3880012876          0.5392
H1041      H    0.4311191138    0.5349124897   -0.3410029634          0.5242
H1042      H    0.5215813647    0.5156073319   -0.3781157757         -0.3918
C1043      C    0.5000000000    0.5000000000   -0.3724755361          -0.412
H1044      H    0.4530289307    0.4835123345   -0.3185571796          0.5449
H1045      H    0.4752543007    0.5771342453   -0.1195770844          0.5699
H1046      H    0.5019602435    0.5580687122   -0.0950224446         -0.4047
H1047      H    0.4492228437    0.5699917416   -0.1907857698          0.5441
H1048      H    0.4677690408    0.5854881827   -0.1579255199          0.5622
C977       C    0.5000000000    0.5000000000    0.3724755361         -0.4074
C978       C    0.5304905255    0.5113443243    0.3640536844         -0.4181
C979       C    0.5371585794    0.5189332476    0.3320486365          0.5742
C980       C    0.5139527405    0.5149225881    0.3081354884         -0.4226
C981       C    0.4835364432    0.5047586084    0.3170519283         -0.4129
C982       C    0.4765978891    0.4977127297    0.3488472053         -0.4058
C983       C    0.5242026287    0.5206102675    0.2715904981          0.5714
N984       N    0.5678661713    0.5302118754    0.3240574550          0.5635
N985       N    0.5544740055    0.5156653588    0.3872330731         -0.4217
H986       H    0.4518784375    0.4886032958    0.3551571547         -0.3972
H987       H    0.4643583200    0.5013565599    0.2982356594         -0.4102
O988       O    0.4993672017    0.5253640841    0.2453338673          0.5664
C989       C    0.5390767422    0.4911070192    0.2204684746         -0.4019
C990       C    0.5456140228    0.4915737291    0.2580705494         -0.4016
C991       C    0.5040463155    0.5290007600    0.1802802695          0.5618
H992       H    0.5384099444    0.4678571721    0.2692878432         -0.3792
H993       H    0.5235983800    0.4697065439    0.2138866312          -0.382
H994       H    0.5621909927    0.4903191202    0.2062095020         -0.4014
H995       H    0.5719329445    0.4960863201    0.2632294036         -0.4057
H996       H    0.5378710279    0.5441119915    0.2178640139          0.5484
C997       C    0.5199627690    0.5237081926    0.2153283540          0.5675
H998       H    0.5391665954    0.5433833831    0.2708895974          0.5501
O999       O    0.4923308389    0.4990844496    0.1633455606         -0.4105
C1000      C    0.5197695143    0.5322471057    0.1220077518          0.5577
C1001      C    0.5313997732    0.5419531276    0.1566975234          0.5493
H1002      H    0.5550551667    0.5294770303    0.1617356061          0.5611
H1003      H    0.5407241529    0.5283394715    0.1050977284          0.5611
H1004      H    0.5037556693    0.5518345014    0.1119987124          0.5392
H1005      H    0.5350771066    0.5687972021    0.1589970366          0.5242
H1006      H    0.5155556791    0.4783813748    0.1218842243         -0.3918
C1007      C    0.5000000000    0.5000000000    0.1275244639          -0.412
H1008      H    0.4836247049    0.5470103624    0.1814428204          0.5449
H1009      H    0.5771931998    0.5245611753    0.3804229156          0.5699
H1010      H    0.5580638586    0.4979009008    0.4049775554         -0.4047
H1011      H    0.5701129663    0.5506096379    0.3092142302          0.5441
H1012      H    0.5855650131    0.5320264367    0.3420744801          0.5622
C941       C    0.5000000000    0.6275244639    0.5000000000         -0.4074
C942       C    0.5148390892    0.6359463156    0.5289511186         -0.4181
C943       C    0.5146363946    0.6679513635    0.5390512976          0.5742
C944       C    0.5002218732    0.6918645116    0.5204282494         -0.4226
C945       C    0.4846408201    0.6829480717    0.4923981155         -0.4129
C946       C    0.4842773802    0.6511527947    0.4825160180         -0.4058
C947       C    0.5039452609    0.7284095019    0.5315433872          0.5714
N948       N    0.5296799845    0.6759425450    0.5681004636          0.5635
N949       N    0.5296178664    0.6127669269    0.5483280740         -0.4217
H950       H    0.4721877517    0.6448428453    0.4591093105         -0.3972
H951       H    0.4727872126    0.7017643406    0.4769428143         -0.4102
O952       O    0.4824123900    0.7546661327    0.5182869672          0.5664
C953       C    0.5348343148    0.7795315254    0.5198153325         -0.4019
C954       C    0.5393426167    0.7419294506    0.5245723347         -0.4016
C955       C    0.4834099785    0.8197197305    0.5241285710          0.5618
H956       H    0.5500359512    0.7307121568    0.5022110643         -0.3792
H957       H    0.5378593732    0.7861133688    0.4935777819          -0.382
H958       H    0.5524202804    0.7937904980    0.5348360906         -0.4014
H959       H    0.5557152269    0.7367705964    0.5456670438         -0.4057
H960       H    0.4981664376    0.7821359861    0.5581095569          0.5484
C961       C    0.4987259167    0.7846716460    0.5309671964          0.5675
H962       H    0.4996141417    0.7291104026    0.5584464818          0.5501
O963       O    0.4949595418    0.8366544394    0.4941478170         -0.4105
C964       C    0.4928195760    0.8779922482    0.5371369228          0.5577
C965       C    0.4948490524    0.8433024766    0.5521486185          0.5493
H966       H    0.5207238003    0.8382643939    0.5589108716          0.5611
H967       H    0.5109179554    0.8949022716    0.5483981459          0.5611
H968       H    0.4677827924    0.8880012876    0.5407795552          0.5392
H969       H    0.4794425484    0.8410029634    0.5744368834          0.5242
H970       H    0.5260698170    0.8781157757    0.4945494264         -0.3918
C971       C    0.5000000000    0.8724755361    0.5000000000          -0.412
H972       H    0.4561860696    0.8185571796    0.5236318421          0.5449
H973       H    0.5403758583    0.6195770844    0.5702269997          0.5699
H974       H    0.5442575114    0.5950224446    0.5376442635         -0.4047
H975       H    0.5175692531    0.6907857698    0.5846669052          0.5441
H976       H    0.5415137014    0.6579255199    0.5813859737          0.5622
C905       C    0.5000000000    1.1275244639    0.5000000000         -0.4074
C906       C    0.5202505233    1.1359463156    0.5254613854         -0.4181
C907       C    0.5220410902    1.1679513635    0.5354036472          0.5742
C908       C    0.5042409941    1.1918645116    0.5199844082         -0.4226
C909       C    0.4834444338    1.1829480717    0.4955721019         -0.4129
C910       C    0.4811417741    1.1511527947    0.4859551534         -0.4058
C911       C    0.5100806428    1.2284095019    0.5301484826          0.5714
N912       N    0.5425114195    1.1759425450    0.5609208818          0.5635
N913       N    0.5385562267    1.1127669269    0.5415480219         -0.4217
H914       H    0.4646788611    1.1448428453    0.4653880541         -0.3972
H915       H    0.4687789962    1.2017643406    0.4827541736         -0.4102
O916       O    0.4863586189    1.2546661327    0.5213927539          0.5664
C917       C    0.5380547407    1.2795315254    0.5125663678         -0.4019
C918       C    0.5434116557    1.2419294506    0.5163422542         -0.4016
C919       C    0.4884872061    1.3197197305    0.5269234531          0.5618
H920       H    0.5494913455    1.2307121568    0.4923128723         -0.3792
H921       H    0.5358529014    1.2861133688    0.4862469464          -0.382
H922       H    0.5582546669    1.2937904980    0.5238292421         -0.4014
H923       H    0.5636182947    1.2367705964    0.5337990825         -0.4057
H924       H    0.5096473805    1.2821359861    0.5573324568          0.5484
C925       C    0.5048500491    1.2846716460    0.5306115593          0.5675
H926       H    0.5111330868    1.2291104026    0.5573776481          0.5501
O927       O    0.4939056500    1.3366544394    0.4952551963         -0.4105
C928       C    0.5002745647    1.3779922482    0.5378237245          0.5577
C929       C    0.5052209324    1.3433024766    0.5521416584          0.5493
H930       H    0.5319207206    1.3382643939    0.5536752670          0.5611
H931       H    0.5202364047    1.3949022716    0.5452997814          0.5611
H932       H    0.4764456320    1.3880012876    0.5463261517          0.5392
H933       H    0.4945060142    1.3410029634    0.5770277518          0.5242
H934       H    0.5244856465    1.3781157757    0.4895215828         -0.3918
C935       C    0.5000000000    1.3724755361    0.5000000000          -0.412
H936       H    0.4616987165    1.3185571796    0.5317983670          0.5449
H937       H    0.5534166201    1.1195770844    0.5608991472          0.5699
H938       H    0.5508048743    1.0950224446    0.5281901160         -0.4047
H939       H    0.5339007698    1.1907857698    0.5795481068          0.5441
H940       H    0.5567300027    1.1579255199    0.5716154376          0.5622
C869       C    0.5000000000    0.8724755361    0.0000000000         -0.4074
C870       C    0.4730725325    0.8640536844    0.0182558849         -0.4181
C871       C    0.4683958580    0.8320486365    0.0272104042          0.5742
C872       C    0.4899870579    0.8081354884    0.0178074028         -0.4226
C873       C    0.5171225215    0.8170519283    0.0007157604         -0.4129
C874       C    0.5221908376    0.8488472053   -0.0077754180         -0.4058
C875       C    0.4813796868    0.7715904981    0.0257649820          0.5714
N876       N    0.4412419345    0.8240574550    0.0454539807          0.5635
N877       N    0.4507995593    0.8872330731    0.0281449351         -0.4217
H878       H    0.5440424387    0.8551571547   -0.0224907368         -0.3972
H879       H    0.5349454862    0.7982356594   -0.0071402101         -0.4102
O880       O    0.5066337965    0.7453338673    0.0244893843          0.5664
C881       C    0.4599291298    0.7204684746    0.0006342335         -0.4019
C882       C    0.4536893420    0.7580705494    0.0026389540         -0.4016
C883       C    0.5029513515    0.6802802695    0.0291325638          0.5618
H884       H    0.4550595293    0.7692878432   -0.0221097107         -0.3792
H885       H    0.4698868659    0.7138866312   -0.0238280544          -0.382
H886       H    0.4372881707    0.7062095020    0.0053540141         -0.4014
H887       H    0.4291930973    0.7632294036    0.0132683054         -0.4057
H888       H    0.4736788525    0.7178640139    0.0518389790          0.5484
C889       C    0.4862335929    0.7153283540    0.0277682656          0.5675
H890       H    0.4722473894    0.7708895974    0.0514386307          0.5501
O891       O    0.5072328228    0.6633455606   -0.0027093429         -0.4105
C892       C    0.4884476709    0.6220077518    0.0360174016          0.5577
C893       C    0.4794529405    0.6566975234    0.0482061098          0.5493
H894       H    0.4535126052    0.6617356061    0.0416999858          0.5611
H895       H    0.4671642988    0.6050977284    0.0371940721          0.5611
H896       H    0.5086523016    0.6119987124    0.0512450804          0.5392
H897       H    0.4822509375    0.6589970366    0.0751560324          0.5242
H898       H    0.4797584226    0.6218842243   -0.0173096117         -0.3918
C899       C    0.5000000000    0.6275244639    0.0000000000          -0.412
H900       H    0.5270634172    0.6814428204    0.0417815259          0.5449
H901       H    0.4308403847    0.8804229156    0.0421780635          0.5699
H902       H    0.4430966214    0.9049775554    0.0117398212         -0.4047
H903       H    0.4438998513    0.8092142302    0.0658022553          0.5441
H904       H    0.4244792733    0.8420744801    0.0514167673          0.5622
C833       C    0.5000000000    1.1275244639    0.0000000000         -0.4074
C834       C    0.4675290771    1.1359463156   -0.0020012514         -0.4181
C835       C    0.4589445993    1.1679513635   -0.0073267973          0.5742
C836       C    0.4823151089    1.1918645116   -0.0102277676         -0.4226
C837       C    0.5143722390    1.1829480717   -0.0093344416         -0.4129
C838       C    0.5230578645    1.1511527947   -0.0046070905         -0.4058
C839       C    0.4708552534    1.2284095019   -0.0126938611          0.5714
N840       N    0.4262850417    1.1759425450   -0.0092021488          0.5635
N841       N    0.4433243062    1.1127669269    0.0008285398         -0.4217
H842       H    0.5493574075    1.1448428453   -0.0030685463         -0.3972
H843       H    0.5337118608    1.2017643406   -0.0116481781         -0.4102
O844       O    0.4932399904    1.2546661327   -0.0244548455          0.5664
C845       C    0.4651896219    1.2795315254    0.0198573529         -0.4019
C846       C    0.4587985192    1.2419294506    0.0213091318         -0.4016
C847       C    0.4877064474    1.3197197305   -0.0265760289          0.5618
H848       H    0.4725792664    1.2307121568    0.0419116760         -0.3792
H849       H    0.4862155217    1.2861133688    0.0358408312          -0.382
H850       H    0.4433002192    1.2937904980    0.0273235039         -0.4014
H851       H    0.4323033198    1.2367705964    0.0246338158         -0.4057
H852       H    0.4509511342    1.2821359861   -0.0312136398          0.5484
C853       C    0.4740127934    1.2846716460   -0.0168895125          0.5675
H854       H    0.4499229781    1.2291104026   -0.0301402058          0.5501
O855       O    0.5076045477    1.3366544394   -0.0013509695         -0.4105
C856       C    0.4717180842    1.3779922482   -0.0251165834          0.5577
C857       C    0.4577704450    1.3433024766   -0.0310270101          0.5493
H858       H    0.4387573833    1.3382643939   -0.0122191892          0.5611
H859       H    0.4528011782    1.3949022716   -0.0152922691          0.5611
H860       H    0.4813538224    1.3880012876   -0.0485102118          0.5392
H861       H    0.4464562594    1.3410029634   -0.0556464399          0.5242
H862       H    0.4913925380    1.3781157757    0.0252042795         -0.3918
C863       C    0.5000000000    1.3724755361    0.0000000000          -0.412
H864       H    0.5020181895    1.3185571796   -0.0497398369          0.5449
H865       H    0.4190008577    1.1195770844   -0.0010864519          0.5699
H866       H    0.4450478133    1.0950224446    0.0188699515         -0.4047
H867       H    0.4182117098    1.1907857698   -0.0280684710          0.5441
H868       H    0.4088219500    1.1579255199   -0.0057989060          0.5622
C797       C    0.5000000000    1.0000000000   -0.1275244639         -0.4074
C798       C    0.5114172047    0.9695366897   -0.1359463156         -0.4181
C799       C    0.5190220518    0.9628868024   -0.1679513635          0.5742
C800       C    0.5149559110    0.9860829842   -0.1918645116         -0.4226
C801       C    0.5047192250    1.0164748891   -0.1829480717         -0.4129
C802       C    0.4976567742    1.0233965744   -0.1511527947         -0.4058
C803       C    0.5206680850    0.9758467264   -0.2284095019          0.5714
N804       N    0.5303740793    0.9322062692   -0.1759425450          0.5635
N805       N    0.5157955792    0.9455636113   -0.1127669269         -0.4217
H806       H    0.4884882540    1.0480941717   -0.1448428453         -0.3972
H807       H    0.5012713251    1.0356448221   -0.2017643406         -0.4102
O808       O    0.5253624984    1.0006934503   -0.2546661327          0.5664
C809       C    0.4912004899    0.9609021035   -0.2795315254         -0.4019
C810       C    0.4916828313    0.9543659576   -0.2419294506         -0.4016
C811       C    0.5290103531    0.9960230464   -0.3197197305          0.5618
H812       H    0.4679491148    0.9615133014   -0.2307121568         -0.3792
H813       H    0.4697630620    0.9763292459   -0.2861133688          -0.382
H814       H    0.4904678669    0.9377860350   -0.2937904980         -0.4014
H815       H    0.4962583465    0.9280579023   -0.2367705964         -0.4057
H816       H    0.5442024274    0.9622345666   -0.2821359861          0.5484
C817       C    0.5237558623    0.9800939822   -0.2846716460          0.5675
H818       H    0.5434769192    0.9609372605   -0.2291104026          0.5501
O819       O    0.4990661127    1.0076669498   -0.3366544394         -0.4105
C820       C    0.5322942889    0.9803076556   -0.3779922482          0.5577
C821       C    0.5420280948    0.9687006402   -0.3433024766          0.5493
H822       H    0.5296086009    0.9450154800   -0.3382643939          0.5611
H823       H    0.5284367753    0.9593437325   -0.3949022716          0.5611
H824       H    0.5518433342    0.9963682947   -0.3880012876          0.5392
H825       H    0.5688808862    0.9650875103   -0.3410029634          0.5242
H826       H    0.4784186353    0.9843926681   -0.3781157757         -0.3918
C827       C    0.5000000000    1.0000000000   -0.3724755361          -0.412
H828       H    0.5469710693    1.0164876655   -0.3185571796          0.5449
H829       H    0.5247456993    0.9228657547   -0.1195770844          0.5699
H830       H    0.4980397565    0.9419312878   -0.0950224446         -0.4047
H831       H    0.5507771563    0.9300082584   -0.1907857698          0.5441
H832       H    0.5322309592    0.9145118173   -0.1579255199          0.5622
C761       C    0.5000000000    1.0000000000    0.1275244639         -0.4074
C762       C    0.5304905255    0.9886556757    0.1359463156         -0.4181
C763       C    0.5371585794    0.9810667524    0.1679513635          0.5742
C764       C    0.5139527405    0.9850774119    0.1918645116         -0.4226
C765       C    0.4835364432    0.9952413916    0.1829480717         -0.4129
C766       C    0.4765978891    1.0022872703    0.1511527947         -0.4058
C767       C    0.5242026287    0.9793897325    0.2284095019          0.5714
N768       N    0.5678661713    0.9697881246    0.1759425450          0.5635
N769       N    0.5544740055    0.9843346412    0.1127669269         -0.4217
H770       H    0.4518784375    1.0113967042    0.1448428453         -0.3972
H771       H    0.4643583200    0.9986434401    0.2017643406         -0.4102
O772       O    0.4993672017    0.9746359159    0.2546661327          0.5664
C773       C    0.5390767422    1.0088929808    0.2795315254         -0.4019
C774       C    0.5456140228    1.0084262709    0.2419294506         -0.4016
C775       C    0.5040463155    0.9709992400    0.3197197305          0.5618
H776       H    0.5384099444    1.0321428279    0.2307121568         -0.3792
H777       H    0.5235983800    1.0302934561    0.2861133688          -0.382
H778       H    0.5621909927    1.0096808798    0.2937904980         -0.4014
H779       H    0.5719329445    1.0039136799    0.2367705964         -0.4057
H780       H    0.5378710279    0.9558880085    0.2821359861          0.5484
C781       C    0.5199627690    0.9762918074    0.2846716460          0.5675
H782       H    0.5391665954    0.9566166169    0.2291104026          0.5501
O783       O    0.4923308389    1.0009155504    0.3366544394         -0.4105
C784       C    0.5197695143    0.9677528943    0.3779922482          0.5577
C785       C    0.5313997732    0.9580468724    0.3433024766          0.5493
H786       H    0.5550551667    0.9705229697    0.3382643939          0.5611
H787       H    0.5407241529    0.9716605285    0.3949022716          0.5611
H788       H    0.5037556693    0.9481654986    0.3880012876          0.5392
H789       H    0.5350771066    0.9312027979    0.3410029634          0.5242
H790       H    0.5155556791    1.0216186252    0.3781157757         -0.3918
C791       C    0.5000000000    1.0000000000    0.3724755361          -0.412
H792       H    0.4836247049    0.9529896376    0.3185571796          0.5449
H793       H    0.5771931998    0.9754388247    0.1195770844          0.5699
H794       H    0.5580638586    1.0020990992    0.0950224446         -0.4047
H795       H    0.5701129663    0.9493903621    0.1907857698          0.5441
H796       H    0.5855650131    0.9679735633    0.1579255199          0.5622
C725       C    0.8724755361    0.5000000000    0.5000000000         -0.4074
C726       C    0.8640536844    0.4706965855    0.5141306665         -0.4181
C727       C    0.8320486365    0.4606043225    0.5136824152          0.5742
C728       C    0.8081354884    0.4795723962    0.4997250326         -0.4226
C729       C    0.8170519283    0.5079731415    0.4848302252         -0.4129
C730       C    0.8488472053    0.5178611548    0.4847072059         -0.4058
C731       C    0.7715904981    0.4683700000    0.5031770209          0.5714
N732       N    0.8240574550    0.4311979165    0.5280151376          0.5635
N733       N    0.8872330731    0.4509659695    0.5284338636         -0.4217
H734       H    0.8551571547    0.5415549364    0.4731903579         -0.3972
H735       H    0.7982356594    0.5237121287    0.4733559657         -0.4102
O736       O    0.7453338673    0.4821461369    0.4819728879          0.5664
C737       C    0.7204684746    0.4793434252    0.5343421433         -0.4019
C738       C    0.7580705494    0.4744781967    0.5387334310         -0.4016
C739       C    0.6802802695    0.4762820013    0.4828281251          0.5618
H740       H    0.7692878432    0.4965728134    0.5499673854         -0.3792
H741       H    0.7138866312    0.5054996532    0.5380043529          -0.382
H742       H    0.7062095020    0.4638994530    0.5515576329         -0.4014
H743       H    0.7632294036    0.4529915762    0.5545882175         -0.4057
H744       H    0.7178640139    0.4419522163    0.4967538694          0.5484
C745       C    0.7153283540    0.4690729447    0.4979732320          0.5675
H746       H    0.7708895974    0.4415801857    0.4981929520          0.5501
O747       O    0.6633455606    0.5059730264    0.4951033460         -0.4105
C748       C    0.6220077518    0.4630486734    0.4919186023          0.5577
C749       C    0.6566975234    0.4479920642    0.4935824236          0.5493
H750       H    0.6617356061    0.4406025878    0.5192850748          0.5611
H751       H    0.6050977284    0.4513506635    0.5097377787          0.5611
H752       H    0.6119987124    0.4600159637    0.4668006411          0.5392
H753       H    0.6589970366    0.4260850465    0.4776384688          0.5242
H754       H    0.6218842243    0.5048149949    0.5261946547         -0.3918
C755       C    0.6275244639    0.5000000000    0.5000000000          -0.412
H756       H    0.6814428204    0.4774406153    0.4556243465          0.5449
H757       H    0.8804229156    0.4288119066    0.5386561352          0.5699
H758       H    0.9049775554    0.4612906131    0.5433289886         -0.4047
H759       H    0.8092142302    0.4149308834    0.5155051243          0.5441
H760       H    0.8420744801    0.4176285626    0.5395222774          0.5622
C689       C    1.1275244639    0.5000000000    0.5000000000         -0.4074
C690       C    1.1359463156    0.4858693335    0.5293034145         -0.4181
C691       C    1.1679513635    0.4863175848    0.5393956775          0.5742
C692       C    1.1918645116    0.5002749674    0.5204276038         -0.4226
C693       C    1.1829480717    0.5151697748    0.4920268585         -0.4129
C694       C    1.1511527947    0.5152927941    0.4821388452         -0.4058
C695       C    1.2284095019    0.4968229791    0.5316300000          0.5714
N696       N    1.1759425450    0.4719848624    0.5688020835          0.5635
N697       N    1.1127669269    0.4715661364    0.5490340305         -0.4217
H698       H    1.1448428453    0.5268096421    0.4584450636         -0.3972
H699       H    1.2017643406    0.5266440343    0.4762878713         -0.4102
O700       O    1.2546661327    0.5180271121    0.5178538631          0.5664
C701       C    1.2795315254    0.4656578567    0.5206565748         -0.4019
C702       C    1.2419294506    0.4612665690    0.5255218033         -0.4016
C703       C    1.3197197305    0.5171718749    0.5237179987          0.5618
H704       H    1.2307121568    0.4500326146    0.5034271866         -0.3792
H705       H    1.2861133688    0.4619956471    0.4945003468          -0.382
H706       H    1.2937904980    0.4484423671    0.5361005470         -0.4014
H707       H    1.2367705964    0.4454117825    0.5470084238         -0.4057
H708       H    1.2821359861    0.5032461306    0.5580477837          0.5484
C709       C    1.2846716460    0.5020267680    0.5309270553          0.5675
H710       H    1.2291104026    0.5018070480    0.5584198143          0.5501
O711       O    1.3366544394    0.5048966540    0.4940269736         -0.4105
C712       C    1.3779922482    0.5080813977    0.5369513266          0.5577
C713       C    1.3433024766    0.5064175764    0.5520079358          0.5493
H714       H    1.3382643939    0.4807149252    0.5593974122          0.5611
H715       H    1.3949022716    0.4902622213    0.5486493365          0.5611
H716       H    1.3880012876    0.5331993589    0.5399840363          0.5392
H717       H    1.3410029634    0.5223615312    0.5739149535          0.5242
H718       H    1.3781157757    0.4738053453    0.4951850051         -0.3918
C719       C    1.3724755361    0.5000000000    0.5000000000          -0.412
H720       H    1.3185571796    0.5443756535    0.5225593847          0.5449
H721       H    1.1195770844    0.4613438648    0.5711880934          0.5699
H722       H    1.0950224446    0.4566710114    0.5387093869         -0.4047
H723       H    1.1907857698    0.4844948757    0.5850691166          0.5441
H724       H    1.1579255199    0.4604777226    0.5823714374          0.5622
C653       C    0.8724755361    0.5000000000    0.0000000000         -0.4074
C654       C    0.8640536844    0.5166193009    0.0279672072         -0.4181
C655       C    0.8320486365    0.5170481835    0.0380603117          0.5742
C656       C    0.8081354884    0.5014980431    0.0203744563         -0.4226
C657       C    0.8170519283    0.4841957828   -0.0066271994         -0.4129
C658       C    0.8488472053    0.4832155005   -0.0164672698         -0.4058
C659       C    0.7715904981    0.5059087613    0.0312351869          0.5714
N660       N    0.8240574550    0.5338777126    0.0661125950          0.5635
N661       N    0.8872330731    0.5325800984    0.0463827331         -0.4217
H662       H    0.8551571547    0.4696867680   -0.0390727221         -0.3972
H663       H    0.7982356594    0.4713995099   -0.0213115361         -0.4102
O664       O    0.7453338673    0.4835895560    0.0193503108          0.5664
C665       C    0.7204684746    0.5360045308    0.0175997343         -0.4019
C666       C    0.7580705494    0.5408012960    0.0220657057         -0.4016
C667       C    0.6802802695    0.4849502487    0.0251181555          0.5618
H668       H    0.7692878432    0.5500763279   -0.0009201074         -0.3792
H669       H    0.7138866312    0.5373840378   -0.0087755762          -0.382
H670       H    0.7062095020    0.5544948022    0.0314921503         -0.4014
H671       H    0.7632294036    0.5584601573    0.0420960260         -0.4057
H672       H    0.7178640139    0.5018014078    0.0581105626          0.5484
C673       C    0.7153283540    0.5006636111    0.0309862899          0.5675
H674       H    0.7708895974    0.5032673374    0.0583563590          0.5501
O675       O    0.6633455606    0.4946036786   -0.0055257560         -0.4105
C676       C    0.6220077518    0.4951543735    0.0375130567          0.5577
C677       C    0.6566975234    0.4981179952    0.0523685854          0.5493
H678       H    0.6617356061    0.5243647570    0.0575006548          0.5611
H679       H    0.6050977284    0.5139211160    0.0476212642          0.5611
H680       H    0.6119987124    0.4703941610    0.0427131699          0.5392
H681       H    0.6589970366    0.4841344436    0.0755760712          0.5242
H682       H    0.6218842243    0.5256782449   -0.0070690770         -0.3918
C683       C    0.6275244639    0.5000000000    0.0000000000          -0.412
H684       H    0.6814428204    0.4577485083    0.0263236759          0.5449
H685       H    0.8804229156    0.5446855725    0.0675665674          0.5699
H686       H    0.9049775554    0.5465234763    0.0348049429         -0.4047
H687       H    0.8092142302    0.5228259233    0.0834034814          0.5441
H688       H    0.8420744801    0.5465185390    0.0786326245          0.5622
C617       C    1.1275244639    0.5000000000    0.0000000000         -0.4074
C618       C    1.1359463156    0.4730636649    0.0182427984         -0.4181
C619       C    1.1679513635    0.4683826398    0.0271950441          0.5742
C620       C    1.1918645116    0.4899784062    0.0178025352         -0.4226
C621       C    1.1829480717    0.5171221717    0.0007240804         -0.4129
C622       C    1.1511527947    0.5221946132   -0.0077646343         -0.4058
C623       C    1.2284095019    0.4813671694    0.0257559311          0.5714
N624       N    1.1759425450    0.4412198547    0.0454254240          0.5635
N625       N    1.1127669269    0.4507858891    0.0281210246         -0.4217
H626       H    1.1448428453    0.5440533621   -0.0224693333         -0.3972
H627       H    1.2017643406    0.5349489516   -0.0071232288         -0.4102
O628       O    1.2546661327    0.5066218960    0.0244926048          0.5664
C629       C    1.2795315254    0.4599288264    0.0006147625         -0.4019
C630       C    1.2419294506    0.4536880652    0.0026164507         -0.4016
C631       C    1.3197197305    0.5029371952    0.0291339945          0.5618
H632       H    1.2307121568    0.4550702780   -0.0221315453         -0.3792
H633       H    1.2861133688    0.4698984479   -0.0238426840          -0.382
H634       H    1.2937904980    0.4372855765    0.0053235409         -0.4014
H635       H    1.2367705964    0.4291866584    0.0132338978         -0.4057
H636       H    1.2821359861    0.4736536664    0.0518261831          0.5484
C637       C    1.2846716460    0.4862201016    0.0277615731          0.5675
H638       H    1.2291104026    0.4722223980    0.0514251393          0.5501
O639       O    1.3366544394    0.5072341384   -0.0027058281         -0.4105
C640       C    1.3779922482    0.4884301709    0.0360117839          0.5577
C641       C    1.3433024766    0.4794295189    0.0481961200          0.5493
H642       H    1.3382643939    0.4534923481    0.0416773920          0.5611
H643       H    1.3949022716    0.4671462296    0.0371781124          0.5611
H644       H    1.3880012876    0.5086273999    0.0512492786          0.5392
H645       H    1.3410029634    0.4822144202    0.0751473990          0.5242
H646       H    1.3781157757    0.4797668360   -0.0173194453         -0.3918
C647       C    1.3724755361    0.5000000000    0.0000000000          -0.412
H648       H    1.3185571796    0.5270431118    0.0417946715          0.5449
H649       H    1.1195770844    0.4308198980    0.0421444529          0.5699
H650       H    1.0950224446    0.4430909236    0.0117121697         -0.4047
H651       H    1.1907857698    0.4438678837    0.0657749877          0.5441
H652       H    1.1579255199    0.4244542982    0.0513800647          0.5622
C581       C    1.0000000000    0.5000000000   -0.3724755361         -0.4074
C582       C    1.0304905255    0.4886556757   -0.3640536844         -0.4181
C583       C    1.0371585794    0.4810667524   -0.3320486365          0.5742
C584       C    1.0139527405    0.4850774119   -0.3081354884         -0.4226
C585       C    0.9835364432    0.4952413916   -0.3170519283         -0.4129
C586       C    0.9765978891    0.5022872703   -0.3488472053         -0.4058
C587       C    1.0242026287    0.4793897325   -0.2715904981          0.5714
N588       N    1.0678661713    0.4697881246   -0.3240574550          0.5635
N589       N    1.0544740055    0.4843346412   -0.3872330731         -0.4217
H590       H    0.9518784375    0.5113967042   -0.3551571547         -0.3972
H591       H    0.9643583200    0.4986434401   -0.2982356594         -0.4102
O592       O    0.9993672017    0.4746359159   -0.2453338673          0.5664
C593       C    1.0390767422    0.5088929808   -0.2204684746         -0.4019
C594       C    1.0456140228    0.5084262709   -0.2580705494         -0.4016
C595       C    1.0040463155    0.4709992400   -0.1802802695          0.5618
H596       H    1.0384099444    0.5321428279   -0.2692878432         -0.3792
H597       H    1.0235983800    0.5302934561   -0.2138866312          -0.382
H598       H    1.0621909927    0.5096808798   -0.2062095020         -0.4014
H599       H    1.0719329445    0.5039136799   -0.2632294036         -0.4057
H600       H    1.0378710279    0.4558880085   -0.2178640139          0.5484
C601       C    1.0199627690    0.4762918074   -0.2153283540          0.5675
H602       H    1.0391665954    0.4566166169   -0.2708895974          0.5501
O603       O    0.9923308389    0.5009155504   -0.1633455606         -0.4105
C604       C    1.0197695143    0.4677528943   -0.1220077518          0.5577
C605       C    1.0313997732    0.4580468724   -0.1566975234          0.5493
H606       H    1.0550551667    0.4705229697   -0.1617356061          0.5611
H607       H    1.0407241529    0.4716605285   -0.1050977284          0.5611
H608       H    1.0037556693    0.4481654986   -0.1119987124          0.5392
H609       H    1.0350771066    0.4312027979   -0.1589970366          0.5242
H610       H    1.0155556791    0.5216186252   -0.1218842243         -0.3918
C611       C    1.0000000000    0.5000000000   -0.1275244639          -0.412
H612       H    0.9836247049    0.4529896376   -0.1814428204          0.5449
H613       H    1.0771931998    0.4754388247   -0.3804229156          0.5699
H614       H    1.0580638586    0.5020990992   -0.4049775554         -0.4047
H615       H    1.0701129663    0.4493903621   -0.3092142302          0.5441
H616       H    1.0855650131    0.4679735633   -0.3420744801          0.5622
C545       C    1.0000000000    0.5000000000    0.3724755361         -0.4074
C546       C    1.0304905255    0.5113443243    0.3640536844         -0.4181
C547       C    1.0371585794    0.5189332476    0.3320486365          0.5742
C548       C    1.0139527405    0.5149225881    0.3081354884         -0.4226
C549       C    0.9835364432    0.5047586084    0.3170519283         -0.4129
C550       C    0.9765978891    0.4977127297    0.3488472053         -0.4058
C551       C    1.0242026287    0.5206102675    0.2715904981          0.5714
N552       N    1.0678661713    0.5302118754    0.3240574550          0.5635
N553       N    1.0544740055    0.5156653588    0.3872330731         -0.4217
H554       H    0.9518784375    0.4886032958    0.3551571547         -0.3972
H555       H    0.9643583200    0.5013565599    0.2982356594         -0.4102
O556       O    0.9993672017    0.5253640841    0.2453338673          0.5664
C557       C    1.0390767422    0.4911070192    0.2204684746         -0.4019
C558       C    1.0456140228    0.4915737291    0.2580705494         -0.4016
C559       C    1.0040463155    0.5290007600    0.1802802695          0.5618
H560       H    1.0384099444    0.4678571721    0.2692878432         -0.3792
H561       H    1.0235983800    0.4697065439    0.2138866312          -0.382
H562       H    1.0621909927    0.4903191202    0.2062095020         -0.4014
H563       H    1.0719329445    0.4960863201    0.2632294036         -0.4057
H564       H    1.0378710279    0.5441119915    0.2178640139          0.5516
C565       C    1.0199627690    0.5237081926    0.2153283540          0.5675
H566       H    1.0391665954    0.5433833831    0.2708895974          0.5501
O567       O    0.9923308389    0.4990844496    0.1633455606         -0.4105
C568       C    1.0197695143    0.5322471057    0.1220077518          0.5577
C569       C    1.0313997732    0.5419531276    0.1566975234          0.5493
H570       H    1.0550551667    0.5294770303    0.1617356061          0.5611
H571       H    1.0407241529    0.5283394715    0.1050977284          0.5611
H572       H    1.0037556693    0.5518345014    0.1119987124          0.5392
H573       H    1.0350771066    0.5687972021    0.1589970366          0.5242
H574       H    1.0155556791    0.4783813748    0.1218842243         -0.3918
C575       C    1.0000000000    0.5000000000    0.1275244639          -0.412
H576       H    0.9836247049    0.5470103624    0.1814428204          0.5449
H577       H    1.0771931998    0.5245611753    0.3804229156          0.5699
H578       H    1.0580638586    0.4979009008    0.4049775554         -0.4047
H579       H    1.0701129663    0.5506096379    0.3092142302          0.5441
H580       H    1.0855650131    0.5320264367    0.3420744801          0.5622
C509       C    1.0000000000   -0.1275244639    0.5000000000         -0.4074
C510       C    1.0304905255   -0.1359463156    0.4886556757         -0.4181
C511       C    1.0371585794   -0.1679513635    0.4810667524          0.5742
C512       C    1.0139527405   -0.1918645116    0.4850774119         -0.4226
C513       C    0.9835364432   -0.1829480717    0.4952413916         -0.4129
C514       C    0.9765978891   -0.1511527947    0.5022872703         -0.4058
C515       C    1.0242026287   -0.2284095019    0.4793897325          0.5714
N516       N    1.0678661713   -0.1759425450    0.4697881246          0.5635
N517       N    1.0544740055   -0.1127669269    0.4843346412         -0.4217
H518       H    0.9518784375   -0.1448428453    0.5113967042         -0.3972
H519       H    0.9643583200   -0.2017643406    0.4986434401         -0.4102
O520       O    0.9993672017   -0.2546661327    0.4746359159          0.5664
C521       C    1.0390767422   -0.2795315254    0.5088929808         -0.4019
C522       C    1.0456140228   -0.2419294506    0.5084262709         -0.4016
C523       C    1.0040463155   -0.3197197305    0.4709992400          0.5618
H524       H    1.0384099444   -0.2307121568    0.5321428279         -0.3792
H525       H    1.0235983800   -0.2861133688    0.5302934561          -0.382
H526       H    1.0621909927   -0.2937904980    0.5096808798         -0.4014
H527       H    1.0719329445   -0.2367705964    0.5039136799         -0.4057
H528       H    1.0378710279   -0.2821359861    0.4558880085          0.5484
C529       C    1.0199627690   -0.2846716460    0.4762918074          0.5675
H530       H    1.0391665954   -0.2291104026    0.4566166169          0.5501
O531       O    0.9923308389   -0.3366544394    0.5009155504         -0.4105
C532       C    1.0197695143   -0.3779922482    0.4677528943          0.5577
C533       C    1.0313997732   -0.3433024766    0.4580468724          0.5493
H534       H    1.0550551667   -0.3382643939    0.4705229697          0.5611
H535       H    1.0407241529   -0.3949022716    0.4716605285          0.5611
H536       H    1.0037556693   -0.3880012876    0.4481654986          0.5392
H537       H    1.0350771066   -0.3410029634    0.4312027979          0.5242
H538       H    1.0155556791   -0.3781157757    0.5216186252         -0.3918
C539       C    1.0000000000   -0.3724755361    0.5000000000          -0.412
H540       H    0.9836247049   -0.3185571796    0.4529896376          0.5449
H541       H    1.0771931998   -0.1195770844    0.4754388247          0.5699
H542       H    1.0580638586   -0.0950224446    0.5020990992         -0.4047
H543       H    1.0701129663   -0.1907857698    0.4493903621          0.5441
H544       H    1.0855650131   -0.1579255199    0.4679735633          0.5622
C473       C    1.0000000000    0.1275244639    0.5000000000         -0.4074
C474       C    1.0015381289    0.1359463156    0.5324961536         -0.4181
C475       C    0.9971766920    0.1679513635    0.5416083744          0.5742
C476       C    0.9917539946    0.1918645116    0.5186913348         -0.4226
C477       C    0.9891594507    0.1829480717    0.4867268864         -0.4129
C478       C    0.9929152448    0.1511527947    0.4775791025         -0.4058
C479       C    0.9905474582    0.2284095019    0.5303512737          0.5714
N480       N    0.9988604682    0.1759425450    0.5742783689          0.5635
N481       N    1.0069806998    0.1127669269    0.5562502495         -0.4217
H482       H    0.9915875860    0.1448428453    0.4512680707         -0.3972
H483       H    0.9847584142    0.2017643406    0.4677530828         -0.4102
O484       O    0.9764242757    0.2546661327    0.5093766957          0.5664
C485       C    1.0235215141    0.2795315254    0.5324471148         -0.4019
C486       C    1.0256590093    0.2419294506    0.5386426754         -0.4016
C487       C    0.9749167927    0.3197197305    0.5151079270          0.5618
H488       H    1.0446425219    0.2307121568    0.5227052957         -0.3792
H489       H    1.0371262088    0.2861133688    0.5098092632          -0.382
H490       H    1.0333214705    0.2937904980    0.5533958669         -0.4014
H491       H    1.0318423689    0.2367705964    0.5646198804         -0.4057
H492       H    0.9742996075    0.2821359861    0.5521495194          0.5484
C493       C    0.9860336138    0.2846716460    0.5276682236          0.5675
H494       H    0.9754783840    0.2291104026    0.5530549760          0.5501
O495       O    0.9978308928    0.3366544394    0.4925872246         -0.4105
C496       C    0.9781045245    0.3779922482    0.5308431139          0.5577
C497       C    0.9737443049    0.3433024766    0.5453502938          0.5493
H498       H    0.9945063294    0.3382643939    0.5622076062          0.5611
H499       H    0.9899257651    0.3949022716    0.5485807787          0.5611
H500       H    0.9538025556    0.3880012876    0.5238058127          0.5392
H501       H    0.9504997213    0.3410029634    0.5592720915          0.5242
H502       H    1.0259901951    0.3781157757    0.5058184076         -0.3918
C503       C    1.0000000000    0.3724755361    0.5000000000          -0.412
H504       H    0.9503352982    0.3185571796    0.5033973299          0.5449
H505       H    1.0077194626    0.1195770844    0.5806377785          0.5699
H506       H    1.0247280975    0.0950224446    0.5525769825         -0.4047
H507       H    0.9809828667    0.1907857698    0.5843534950          0.5441
H508       H    1.0041407027    0.1579255199    0.5912683882          0.5622
C437       C    0.6275244639   -0.0000000000    0.5000000000         -0.4074
C438       C    0.6359463156    0.0223952218    0.5235970312         -0.4181
C439       C    0.6679513635    0.0319915212    0.5267538869          0.5742
C440       C    0.6918645116    0.0191996751    0.5069810514         -0.4226
C441       C    0.6829480717   -0.0020806828    0.4829893030         -0.4129
C442       C    0.6511527947   -0.0112835642    0.4793706137         -0.4058
C443       C    0.7284095019    0.0284520971    0.5141784532          0.5714
N444       N    0.6759425450    0.0544114571    0.5505763577          0.5635
N445       N    0.6127669269    0.0357776022    0.5439634385         -0.4217
H446       H    0.6448428453   -0.0293592731    0.4602054937         -0.3972
H447       H    0.7017643406   -0.0127328009    0.4666826563         -0.4102
O448       O    0.7546661327    0.0230830954    0.4894687177          0.5664
C449       C    0.7795315254    0.0071477979    0.5394333092         -0.4019
C450       C    0.7419294506    0.0101413876    0.5452635988         -0.4016
C451       C    0.8197197305    0.0282637224    0.4923463246          0.5618
H452       H    0.7307121568   -0.0145002766    0.5479398289         -0.3792
H453       H    0.7861133688   -0.0186090362    0.5335898912          -0.382
H454       H    0.7937904980    0.0154897334    0.5610041569         -0.4014
H455       H    0.7367705964    0.0246160619    0.5677031380         -0.4057
H456       H    0.7821359861    0.0554318105    0.5175327391          0.5484
C457       C    0.7846716460    0.0296386353    0.5090632135          0.5675
H458       H    0.7291104026    0.0552697887    0.5190102757          0.5501
O459       O    0.8366544394   -0.0038504447    0.4933046030         -0.4105
C460       C    0.8779922482    0.0374174036    0.5055360122          0.5577
C461       C    0.8433024766    0.0509075812    0.5124269404          0.5493
H462       H    0.8382643939    0.0487103195    0.5390803207          0.5611
H463       H    0.8949022716    0.0420425114    0.5263440602          0.5611
H464       H    0.8880012876    0.0491534769    0.4831223136          0.5392
H465       H    0.8410029634    0.0770427275    0.5052798259          0.5242
H466       H    0.8781157757   -0.0137842307    0.5227890126         -0.3918
C467       C    0.8724755361   -0.0000000000    0.5000000000          -0.412
H468       H    0.8185571796    0.0368194826    0.4664970127          0.5449
H469       H    0.6195770844    0.0528722019    0.5613724017          0.5699
H470       H    0.5950224446    0.0208449918    0.5542337921         -0.4047
H471       H    0.6907857698    0.0740557859    0.5446419540          0.5441
H472       H    0.6579255199    0.0630230590    0.5661449783          0.5622
C401       C    1.1275244639   -0.0000000000    0.5000000000         -0.4074
C402       C    1.1359463156    0.0009718406    0.5325180160         -0.4181
C403       C    1.1679513635    0.0060228305    0.5412668560          0.5742
C404       C    1.1918645116    0.0096625274    0.5179999491         -0.4226
C405       C    1.1829480717    0.0097849509    0.4859306080         -0.4129
C406       C    1.1511527947    0.0053350592    0.4770996170         -0.4058
C407       C    1.2284095019    0.0117644315    0.5295321607          0.5714
N408       N    1.1759425450    0.0068628600    0.5739694246          0.5635
N409       N    1.1127669269   -0.0026231353    0.5566210200         -0.4217
H410       H    1.1448428453    0.0046302362    0.4507645396         -0.3972
H411       H    1.2017643406    0.0127100439    0.4666739682         -0.4102
O412       O    1.2546661327    0.0242284767    0.5075311429          0.5664
C413       C    1.2795315254   -0.0209498922    0.5341640001         -0.4019
C414       C    1.2419294506   -0.0226033594    0.5405059164         -0.4016
C415       C    1.3197197305    0.0261733397    0.5131290912          0.5618
H416       H    1.2307121568   -0.0427591092    0.5260795666         -0.3792
H417       H    1.2861133688   -0.0362594277    0.5126424257          -0.382
H418       H    1.2937904980   -0.0291055705    0.5558059564         -0.4014
H419       H    1.2367705964   -0.0267655215    0.5668825258         -0.4057
H420       H    1.2821359861    0.0296445236    0.5500128460          0.5484
C421       C    1.2846716460    0.0160579825    0.5265090878          0.5675
H422       H    1.2291104026    0.0285390647    0.5510064889          0.5501
O423       O    1.3366544394    0.0015911401    0.4924420547         -0.4105
C424       C    1.3779922482    0.0242082489    0.5290632106          0.5577
C425       C    1.3433024766    0.0296739662    0.5431910454          0.5493
H426       H    1.3382643939    0.0102734061    0.5615988946          0.5611
H427       H    1.3949022716    0.0137897341    0.5476594745          0.5611
H428       H    1.3880012876    0.0478953208    0.5201732205          0.5392
H429       H    1.3410029634    0.0539227064    0.5552792923          0.5242
H430       H    1.3781157757   -0.0254642476    0.5078048835         -0.3918
C431       C    1.3724755361   -0.0000000000    0.5000000000          -0.412
H432       H    1.3185571796    0.0497788031    0.4995581644          0.5449
H433       H    1.1195770844   -0.0014794675    0.5809929170          0.5699
H434       H    1.0950224446   -0.0206009100    0.5543269767         -0.4047
H435       H    1.1907857698    0.0254640219    0.5826362334          0.5441
H436       H    1.1579255199    0.0029082400    0.5913159693          0.5622
C365       C   -0.0000000000   -0.1275244639    0.0000000000         -0.4074
C366       C   -0.0209588269   -0.1359463156   -0.0248815878         -0.4181
C367       C   -0.0303513841   -0.1679513635   -0.0286010729          0.5742
C368       C   -0.0187526672   -0.1918645116   -0.0081055584         -0.4226
C369       C    0.0010698817   -0.1829480717    0.0171040465         -0.4129
C370       C    0.0100423674   -0.1511527947    0.0212612619         -0.4058
C371       C   -0.0275627219   -0.2284095019   -0.0158381414          0.5714
N372       N   -0.0513215343   -0.1759425450   -0.0537091681          0.5635
N373       N   -0.0331118988   -0.1127669269   -0.0460045965         -0.4217
H374       H    0.0269516588   -0.1448428453    0.0414629682         -0.3972
H375       H    0.0107378468   -0.2017643406    0.0340127661         -0.4102
O376       O   -0.0236661262   -0.2546661327    0.0091461286          0.5664
C377       C   -0.0048005339   -0.2795315254   -0.0397873317         -0.4019
C378       C   -0.0074436785   -0.2419294506   -0.0457846347         -0.4016
C379       C   -0.0286672908   -0.3197197305    0.0059668408          0.5618
H380       H    0.0173132089   -0.2307121568   -0.0469972128         -0.3792
H381       H    0.0205651451   -0.2861133688   -0.0324291818          -0.382
H382       H   -0.0118506919   -0.2937904980   -0.0618142387         -0.4014
H383       H   -0.0205643843   -0.2367705964   -0.0690418098         -0.4057
H384       H   -0.0542965087   -0.2821359861   -0.0207839288          0.5484
C385       C   -0.0290500362   -0.2846716460   -0.0108021265          0.5675
H386       H   -0.0540472907   -0.2291104026   -0.0222492806          0.5501
O387       O    0.0034472761   -0.3366544394    0.0069116244         -0.4105
C388       C   -0.0370239932   -0.3779922482   -0.0077416699          0.5577
C389       C   -0.0500825148   -0.3433024766   -0.0154192214          0.5493
H390       H   -0.0463110430   -0.3382643939   -0.0418957514          0.5611
H391       H   -0.0404090068   -0.3949022716   -0.0287870533          0.5611
H392       H   -0.0500665243   -0.3880012876    0.0139378523          0.5392
H393       H   -0.0765949716   -0.3410029634   -0.0098320264          0.5242
H394       H    0.0151093168   -0.3781157757   -0.0219329126         -0.3918
C395       C   -0.0000000000   -0.3724755361    0.0000000000          -0.412
H396       H   -0.0387385001   -0.3185571796    0.0312642458          0.5449
H397       H   -0.0491457789   -0.1195770844   -0.0643951384          0.5699
H398       H   -0.0175974082   -0.0950224446   -0.0553728193         -0.4047
H399       H   -0.0712827595   -0.1907857698   -0.0489482552          0.5441
H400       H   -0.0589962590   -0.1579255199   -0.0697603436          0.5622
C329       C    0.0000000000    0.3724755361    0.0000000000         -0.4074
C330       C    0.0180119362    0.3640536844    0.0270912531         -0.4181
C331       C    0.0269238513    0.3320486365    0.0318486126          0.5742
C332       C    0.0177162413    0.3081354884    0.0101733670         -0.4226
C333       C    0.0008703788    0.3170519283   -0.0171153585         -0.4129
C334       C   -0.0075746771    0.3488472053   -0.0222601587         -0.4058
C335       C    0.0255957557    0.2715904981    0.0188522585          0.5714
N336       N    0.0449214342    0.3240574550    0.0591662013          0.5635
N337       N    0.0276994174    0.3872330731    0.0494526341         -0.4217
H338       H   -0.0220920358    0.3551571547   -0.0442437747         -0.3972
H339       H   -0.0068242974    0.2982356594   -0.0350085500         -0.4102
O340       O    0.0245483007    0.2453338673   -0.0064123421          0.5664
C341       C    0.0002722946    0.2204684746    0.0400749640         -0.4019
C342       C    0.0022205767    0.2580705494    0.0463326036         -0.4016
C343       C    0.0291580316    0.1802802695   -0.0026881109          0.5618
H344       H   -0.0225147034    0.2692878432    0.0447389466         -0.3792
H345       H   -0.0240990591    0.2138866312    0.0298966950          -0.382
H346       H    0.0047873935    0.2062095020    0.0627576279         -0.4014
H347       H    0.0126282487    0.2632294036    0.0709238516         -0.4057
H348       H    0.0515991366    0.2178640139    0.0267882744          0.5484
C349       C    0.0276427973    0.2153283540    0.0140166437          0.5675
H350       H    0.0511858759    0.2708895974    0.0282160633          0.5501
O351       O   -0.0026439068    0.1633455606   -0.0072569981         -0.4105
C352       C    0.0359115939    0.1220077518    0.0118771607          0.5577
C353       C    0.0480185661    0.1566975234    0.0209816106          0.5493
H354       H    0.0412784189    0.1617356061    0.0468621256          0.5611
H355       H    0.0368959888    0.1050977284    0.0331702922          0.5611
H356       H    0.0513211363    0.1119987124   -0.0081891121          0.5392
H357       H    0.0749926605    0.1589970366    0.0184271347          0.5242
H358       H   -0.0174917240    0.1218842243    0.0200844144         -0.3918
C359       C    0.0000000000    0.1275244639    0.0000000000          -0.412
H360       H    0.0420242538    0.1814428204   -0.0266849500          0.5449
H361       H    0.0415517056    0.3804229156    0.0695377393          0.5699
H362       H    0.0112254010    0.4049775554    0.0570070896         -0.4047
H363       H    0.0652928847    0.3092142302    0.0566921749          0.5441
H364       H    0.0507325802    0.3420744801    0.0759820336          0.5622
C293       C   -0.3724755361   -0.0000000000    0.0000000000         -0.4074
C294       C   -0.3640536844    0.0191597058   -0.0262920428         -0.4181
C295       C   -0.3320486365    0.0205297584   -0.0363009216          0.5742
C296       C   -0.3081354884    0.0033951709   -0.0201453572         -0.4226
C297       C   -0.3170519283   -0.0163542906    0.0051215459         -0.4129
C298       C   -0.3488472053   -0.0182496886    0.0148269777         -0.4058
C299       C   -0.2715904981    0.0088013631   -0.0305464625          0.5714
N300       N   -0.3240574550    0.0399067217   -0.0626580257          0.5635
N301       N   -0.3872330731    0.0367713304   -0.0431357161         -0.4217
H302       H   -0.3551571547   -0.0338313719    0.0360694874         -0.3972
H303       H   -0.2982356594   -0.0304666116    0.0185460288         -0.4102
O304       O   -0.2453338673   -0.0145306646   -0.0207989659          0.5664
C305       C   -0.2204684746    0.0374914516   -0.0141586703         -0.4019
C306       C   -0.2580705494    0.0426845096   -0.0181569206         -0.4016
C307       C   -0.1802802695   -0.0126370076   -0.0264144428          0.5618
H308       H   -0.2692878432    0.0497712946    0.0055949488         -0.3792
H309       H   -0.2138866312    0.0364005547    0.0122301528          -0.382
H310       H   -0.2062095020    0.0571988693   -0.0262626798         -0.4014
H311       H   -0.2632294036    0.0621376475   -0.0364496661         -0.4057
H312       H   -0.2178640139    0.0072230701   -0.0576880387          0.5484
C313       C   -0.2153283540    0.0035559027   -0.0307887333          0.5675
H314       H   -0.2708895974    0.0087055528   -0.0577957912          0.5501
O315       O   -0.1633455606   -0.0058890121    0.0049973794         -0.4105
C316       C   -0.1220077518   -0.0013194078   -0.0378017022          0.5577
C317       C   -0.1566975234    0.0030192710   -0.0523153388          0.5493
H318       H   -0.1617356061    0.0296307274   -0.0549725994          0.5611
H319       H   -0.1050977284    0.0183096952   -0.0461122254          0.5611
H320       H   -0.1119987124   -0.0254854336   -0.0452925298          0.5392
H321       H   -0.1589970366   -0.0087347239   -0.0767278504          0.5242
H322       H   -0.1218842243    0.0249054160    0.0094373917         -0.3918
C323       C   -0.1275244639   -0.0000000000    0.0000000000          -0.412
H324       H   -0.1814428204   -0.0396071141   -0.0301562759          0.5449
H325       H   -0.3804229156    0.0508031532   -0.0630958085          0.5699
H326       H   -0.4049775554    0.0495719444   -0.0303057787         -0.4047
H327       H   -0.3092142302    0.0305188482   -0.0809058922          0.5441
H328       H   -0.3420744801    0.0536620549   -0.0739421935          0.5622
C257       C    0.3724755361   -0.0000000000    0.0000000000         -0.4074
C258       C    0.3640536844    0.0324420907   -0.0024241680         -0.4181
C259       C    0.3320486365    0.0416699150    0.0016870312          0.5742
C260       C    0.3081354884    0.0189093573    0.0077329690         -0.4226
C261       C    0.3170519283   -0.0129724034    0.0111986519         -0.4129
C262       C    0.3488472053   -0.0222192534    0.0076938403         -0.4058
C263       C    0.2715904981    0.0305978742    0.0086209312          0.5714
N264       N    0.3240574550    0.0742818081   -0.0008874729          0.5635
N265       N    0.3872330731    0.0560388509   -0.0085128098         -0.4217
H266       H    0.3551571547   -0.0484842672    0.0097388643         -0.3972
H267       H    0.2982356594   -0.0318190676    0.0161157236         -0.4102
O268       O    0.2453338673    0.0100164355    0.0233111179          0.5664
C269       C    0.2204684746    0.0317932845   -0.0243980316         -0.4019
C270       C    0.2580705494    0.0379282201   -0.0267037683         -0.4016
C271       C    0.1802802695    0.0157866628    0.0246616712          0.5618
H272       H    0.2692878432    0.0214788350   -0.0452453850         -0.3792
H273       H    0.2138866312    0.0087926753   -0.0373800198          -0.382
H274       H    0.2062095020    0.0524668601   -0.0347658970         -0.4014
H275       H    0.2632294036    0.0637270504   -0.0335935773         -0.4057
H276       H    0.2178640139    0.0528313049    0.0242679990          0.5484
C277       C    0.2153283540    0.0280389768    0.0132062986          0.5675
H278       H    0.2708895974    0.0537042631    0.0230649572          0.5501
O279       O    0.1633455606   -0.0073508348    0.0023705468         -0.4105
C280       C    0.1220077518    0.0314290192    0.0210458137          0.5577
C281       C    0.1566975234    0.0460497610    0.0250086022          0.5493
H282       H    0.1617356061    0.0623343355    0.0037943787          0.5611
H283       H    0.1050977284    0.0488375550    0.0087450266          0.5611
H284       H    0.1119987124    0.0250573827    0.0455307386          0.5392
H285       H    0.1589970366    0.0606005718    0.0478646959          0.5242
H286       H    0.1218842243    0.0051071358   -0.0261392669         -0.3918
C287       C    0.1275244639   -0.0000000000    0.0000000000          -0.412
H288       H    0.1814428204    0.0047510965    0.0495535220          0.5449
H289       H    0.3804229156    0.0803971451   -0.0099166770          0.5699
H290       H    0.4049775554    0.0518827386   -0.0261533808         -0.4047
H291       H    0.3092142302    0.0848409487    0.0167085877          0.5441
H292       H    0.3420744801    0.0911214389   -0.0066292905          0.5622
C221       C    0.0000000000    0.0000000000   -0.1275244639         -0.4074
C222       C    0.0205548565   -0.0252163382   -0.1359463156         -0.4181
C223       C    0.0298862113   -0.0290868057   -0.1679513635          0.5742
C224       C    0.0186195170   -0.0084069133   -0.1918645116         -0.4226
C225       C   -0.0007939196    0.0171190755   -0.1829480717         -0.4129
C226       C   -0.0096981985    0.0214204422   -0.1511527947         -0.4058
C227       C    0.0273037290   -0.0162805634   -0.2284095019          0.5714
N228       N    0.0504487369   -0.0545298044   -0.1759425450          0.5635
N229       N    0.0323657145   -0.0465325828   -0.1127669269         -0.4217
H230       H   -0.0262795147    0.0418922039   -0.1448428453         -0.3972
H231       H   -0.0101879544    0.0341815037   -0.2017643406         -0.4102
O232       O    0.0238105409    0.0087632950   -0.2546661327          0.5664
C233       C    0.0041582919   -0.0398595722   -0.2795315254         -0.4019
C234       C    0.0067043792   -0.0458987192   -0.2419294506         -0.4016
C235       C    0.0287597854    0.0055037710   -0.3197197305          0.5618
H236       H   -0.0180688432   -0.0467119055   -0.2307121568         -0.3792
H237       H   -0.0210854298   -0.0320933276   -0.2861133688          -0.382
H238       H    0.0108523232   -0.0619973070   -0.2937904980         -0.4014
H239       H    0.0194483295   -0.0693644569   -0.2367705964         -0.4057
H240       H    0.0539542828   -0.0216568215   -0.2821359861          0.5484
C241       C    0.0288720616   -0.0112691881   -0.2846716460          0.5675
H242       H    0.0536814667   -0.0231179639   -0.2291104026          0.5501
O243       O   -0.0033353697    0.0069663171   -0.3366544394         -0.4105
C244       C    0.0368943352   -0.0083377188   -0.3779922482          0.5577
C245       C    0.0498273491   -0.0162248561   -0.3433024766          0.5493
H246       H    0.0456294024   -0.0426371238   -0.3382643939          0.5611
H247       H    0.0399395270   -0.0294349530   -0.3949022716          0.5611
H248       H    0.0502847782    0.0131286580   -0.3880012876          0.5392
H249       H    0.0764264585   -0.0110659324   -0.3410029634          0.5242
H250       H   -0.0154610462   -0.0216864050   -0.3781157757         -0.3918
C251       C   -0.0000000000    0.0000000000   -0.3724755361          -0.412
H252       H    0.0392376357    0.0306354763   -0.3185571796          0.5449
H253       H    0.0481009405   -0.0651792985   -0.1195770844          0.5699
H254       H    0.0167021678   -0.0556493979   -0.0950224446         -0.4047
H255       H    0.0704841417   -0.0500914090   -0.1907857698          0.5441
H256       H    0.0578636194   -0.0707026567   -0.1579255199          0.5622
C185       C   -0.0000000000    0.0000000000    0.3724755361         -0.4074
C186       C    0.0187077554    0.0266155167    0.3640536844         -0.4181
C187       C    0.0199066235    0.0366463399    0.3320486365          0.5742
C188       C    0.0030505265    0.0202004181    0.3081354884         -0.4226
C189       C   -0.0162644112   -0.0054001835    0.3170519283         -0.4129
C190       C   -0.0179937319   -0.0151365786    0.3488472053         -0.4058
C191       C    0.0082782447    0.0306923611    0.2715904981          0.5714
N192       N    0.0388304932    0.0633306200    0.3240574550          0.5635
N193       N    0.0360290646    0.0437575965    0.3872330731         -0.4217
H194       H   -0.0332102496   -0.0366421748    0.3551571547         -0.3972
H195       H   -0.0301453385   -0.0190637922    0.2982356594         -0.4102
O196       O   -0.0148838588    0.0205476992    0.2453338673          0.5664
C197       C    0.0372441039    0.0147970813    0.2204684746         -0.4019
C198       C    0.0423681008    0.0188834626    0.2580705494         -0.4016
C199       C   -0.0130864089    0.0261947065    0.1802802695          0.5618
H200       H    0.0498596115   -0.0047438751    0.2692878432         -0.3792
H201       H    0.0366041740   -0.0116065270    0.2138866312          -0.382
H202       H    0.0567418694    0.0272359919    0.2062095020         -0.4014
H203       H    0.0615058997    0.0375058622    0.2632294036         -0.4057
H204       H    0.0062365148    0.0578030141    0.2178640139          0.5484
C205       C    0.0030294111    0.0308449868    0.2153283540          0.5675
H206       H    0.0077169404    0.0579360765    0.2708895974          0.5501
O207       O   -0.0058027810   -0.0050972539    0.1633455606         -0.4105
C208       C   -0.0019649925    0.0377736459    0.1220077518          0.5577
C209       C    0.0021251125    0.0523592835    0.1566975234          0.5493
H210       H    0.0286872908    0.0554707674    0.1617356061          0.5611
H211       H    0.0175192750    0.0464182860    0.1050977284          0.5611
H212       H   -0.0262554597    0.0448505454    0.1119987124          0.5392
H213       H   -0.0100442130    0.0765674357    0.1589970366          0.5242
H214       H    0.0250630032   -0.0090105482    0.1218842243         -0.3918
C215       C    0.0000000000    0.0000000000    0.1275244639          -0.412
H216       H   -0.0401165025    0.0294752555    0.1814428204          0.5449
H217       H    0.0497178558    0.0639544857    0.3804229156          0.5699
H218       H    0.0490469881    0.0311482078    0.4049775554         -0.4047
H219       H    0.0291322561    0.0814154478    0.3092142302          0.5441
H220       H    0.0523910484    0.0748481273    0.3420744801          0.5622
loop_
_geom_bond_atom_site_label_1
_geom_bond_atom_site_label_2
_geom_bond_distance
_geom_bond_site_symmetry_2
_ccdc_geom_bond_type
Zn1          O5 1.942       .   S
Zn1          O6 1.922       .   S
Zn1         O10 1.922       .   S
Zn1         O17 1.922       .   S
Zn2          O5 1.942       .   S
Zn2          O7 1.922       .   S
Zn2          O9 1.922       .   S
Zn2         O13 1.922       .   S
Zn3          O5 1.942       .   S
Zn3          O8 1.922       .   S
Zn3         O11 1.922       .   S
Zn3         O14 1.922       .   S
Zn4          O5 1.942       .   S
Zn4         O12 1.922       .   S
Zn4         O15 1.922       .   S
Zn4         O16 1.922       .   S
O6          C18 1.304       .   A
O7          C19 1.304       .   A
O8          C20 1.304       .   A
O9          C18 1.304       .   A
O10         C20 1.304       .   A
O11         C19 1.304       .   A
O12         C21 1.304       .   A
O13         C22 1.304       .   A
O14         C21 1.304       .   A
O15         C22 1.304       .   A
O16         C23 1.304       .   A
O17         C23 1.304       .   A
C18        C215 1.540       .   S
C19        C287 1.540       .   S
C20        C365 1.540       .   S
C21        C221 1.540       .   S
C22        C359 1.540       .   S
C23        C323 1.540       .   S
Zn24        O28 1.942       .   S
Zn24        O29 1.922       .   S
Zn24        O33 1.922       .   S
Zn24        O40 1.922       .   S
Zn25        O28 1.942       .   S
Zn25        O30 1.922       .   S
Zn25        O32 1.922       .   S
Zn25        O36 1.922       .   S
Zn26        O28 1.942       .   S
Zn26        O31 1.922       .   S
Zn26        O34 1.922       .   S
Zn26        O37 1.922       .   S
Zn27        O28 1.942       .   S
Zn27        O35 1.922       .   S
Zn27        O38 1.922       .   S
Zn27        O39 1.922       .   S
O29         C41 1.304       .   A
O30         C42 1.304       .   A
O31         C43 1.304       .   A
O32         C41 1.304       .   A
O33         C43 1.304       .   A
O34         C42 1.304       .   A
O35         C44 1.304       .   A
O36         C45 1.304       .   A
O37         C44 1.304       .   A
O38         C45 1.304       .   A
O39         C46 1.304       .   A
O40         C46 1.304       .   A
C41        C185 1.540   1_655   S
C42        C401 1.540       .   S
C43        C473 1.540       .   S
C44        C251 1.540   1_656   S
C45        C509 1.540       .   S
C46        C467 1.540       .   S
Zn47        O51 1.942       .   S
Zn47        O52 1.922       .   S
Zn47        O56 1.922       .   S
Zn47        O63 1.922       .   S
Zn48        O51 1.942       .   S
Zn48        O53 1.922       .   S
Zn48        O55 1.922       .   S
Zn48        O59 1.922       .   S
Zn49        O51 1.942       .   S
Zn49        O54 1.922       .   S
Zn49        O57 1.922       .   S
Zn49        O60 1.922       .   S
Zn50        O51 1.942       .   S
Zn50        O58 1.922       .   S
Zn50        O61 1.922       .   S
Zn50        O62 1.922       .   S
O52         C64 1.304       .   A
O53         C65 1.304       .   A
O54         C66 1.304       .   A
O55         C64 1.304       .   A
O56         C66 1.304       .   A
O57         C65 1.304       .   A
O58         C67 1.304       .   A
O59         C68 1.304       .   A
O60         C67 1.304       .   A
O61         C68 1.304       .   A
O62         C69 1.304       .   A
O63         C69 1.304       .   A
C64        C329 1.540   1_655   S
C65        C653 1.540       .   S
C66        C575 1.540       .   S
C67        C395 1.540   1_665   S
C68        C611 1.540       .   S
C69        C617 1.540       .   S
Zn70        O74 1.942       .   S
Zn70        O75 1.922       .   S
Zn70        O79 1.922       .   S
Zn70        O86 1.922       .   S
Zn71        O74 1.942       .   S
Zn71        O76 1.922       .   S
Zn71        O78 1.922       .   S
Zn71        O82 1.922       .   S
Zn72        O74 1.942       .   S
Zn72        O77 1.922       .   S
Zn72        O80 1.922       .   S
Zn72        O83 1.922       .   S
Zn73        O74 1.942       .   S
Zn73        O81 1.922       .   S
Zn73        O84 1.922       .   S
Zn73        O85 1.922       .   S
O75         C87 1.304       .   A
O76         C88 1.304       .   A
O77         C89 1.304       .   A
O78         C87 1.304       .   A
O79         C89 1.304       .   A
O80         C88 1.304       .   A
O81         C90 1.304       .   A
O82         C91 1.304       .   A
O83         C90 1.304       .   A
O84         C91 1.304       .   A
O85         C92 1.304       .   A
O86         C92 1.304       .   A
C87        C503 1.540       .   S
C88        C545 1.540       .   S
C89        C725 1.540       .   S
C90        C539 1.540   1_565   S
C91        C689 1.540       .   S
C92        C581 1.540   1_556   S
Zn93        O97 1.942       .   S
Zn93        O98 1.922       .   S
Zn93       O102 1.922       .   S
Zn93       O109 1.922       .   S
Zn94        O97 1.942       .   S
Zn94        O99 1.922       .   S
Zn94       O101 1.922       .   S
Zn94       O105 1.922       .   S
Zn95        O97 1.942       .   S
Zn95       O100 1.922       .   S
Zn95       O103 1.922       .   S
Zn95       O106 1.922       .   S
Zn96        O97 1.942       .   S
Zn96       O104 1.922       .   S
Zn96       O107 1.922       .   S
Zn96       O108 1.922       .   S
O98        C110 1.304       .   A
O99        C111 1.304       .   A
O100       C112 1.304       .   A
O101       C110 1.304       .   A
O102       C112 1.304       .   A
O103       C111 1.304       .   A
O104       C113 1.304       .   A
O105       C114 1.304       .   A
O106       C113 1.304       .   A
O107       C114 1.304       .   A
O108       C115 1.304       .   A
O109       C115 1.304       .   A
C110       C257 1.540   1_565   S
C111       C761 1.540       .   S
C112       C869 1.540       .   S
C113       C293 1.540   1_665   S
C114       C833 1.540       .   S
C115       C797 1.540       .   S
Zn116      O120 1.942       .   S
Zn116      O121 1.922       .   S
Zn116      O125 1.922       .   S
Zn116      O132 1.922       .   S
Zn117      O120 1.942       .   S
Zn117      O122 1.922       .   S
Zn117      O124 1.922       .   S
Zn117      O128 1.922       .   S
Zn118      O120 1.942       .   S
Zn118      O123 1.922       .   S
Zn118      O126 1.922       .   S
Zn118      O129 1.922       .   S
Zn119      O120 1.942       .   S
Zn119      O127 1.922       .   S
Zn119      O130 1.922       .   S
Zn119      O131 1.922       .   S
O121       C133 1.304       .   A
O122       C134 1.304       .   A
O123       C135 1.304       .   A
O124       C133 1.304       .   A
O125       C135 1.304       .   A
O126       C134 1.304       .   A
O127       C136 1.304       .   A
O128       C137 1.304       .   A
O129       C136 1.304       .   A
O130       C137 1.304       .   A
O131       C138 1.304       .   A
O132       C138 1.304       .   A
C133       C431 1.540   1_465   S
C134       C791 1.540       .   S
C135       C905 1.540       .   S
C136       C437 1.540   1_565   S
C137       C971 1.540       .   S
C138       C827 1.540   1_556   S
Zn139      O143 1.942       .   S
Zn139      O144 1.922       .   S
Zn139      O148 1.922       .   S
Zn139      O155 1.922       .   S
Zn140      O143 1.942       .   S
Zn140      O145 1.922       .   S
Zn140      O147 1.922       .   S
Zn140      O151 1.922       .   S
Zn141      O143 1.942       .   S
Zn141      O146 1.922       .   S
Zn141      O149 1.922       .   S
Zn141      O152 1.922       .   S
Zn142      O143 1.942       .   S
Zn142      O150 1.922       .   S
Zn142      O153 1.922       .   S
Zn142      O154 1.922       .   S
O144       C156 1.304       .   A
O145       C157 1.304       .   A
O146       C158 1.304       .   A
O147       C156 1.304       .   A
O148       C158 1.304       .   A
O149       C157 1.304       .   A
O150       C159 1.304       .   A
O151       C160 1.304       .   A
O152       C159 1.304       .   A
O153       C160 1.304       .   A
O154       C161 1.304       .   A
O155       C161 1.304       .   A
C156       C647 1.540   1_455   S
C157       C863 1.540   1_545   S
C158      C1013 1.540       .   S
C159       C683 1.540       .   S
C160      C1007 1.540       .   S
C161       C899 1.540       .   S
Zn162      O166 1.942       .   S
Zn162      O167 1.922       .   S
Zn162      O171 1.922       .   S
Zn162      O178 1.922       .   S
Zn163      O166 1.942       .   S
Zn163      O168 1.922       .   S
Zn163      O170 1.922       .   S
Zn163      O174 1.922       .   S
Zn164      O166 1.942       .   S
Zn164      O169 1.922       .   S
Zn164      O172 1.922       .   S
Zn164      O175 1.922       .   S
Zn165      O166 1.942       .   S
Zn165      O173 1.922       .   S
Zn165      O176 1.922       .   S
Zn165      O177 1.922       .   S
O167       C179 1.304       .   A
O168       C180 1.304       .   A
O169       C181 1.304       .   A
O170       C179 1.304       .   A
O171       C181 1.304       .   A
O172       C180 1.304       .   A
O173       C182 1.304       .   A
O174       C183 1.304       .   A
O175       C182 1.304       .   A
O176       C183 1.304       .   A
O177       C184 1.304       .   A
O178       C184 1.304       .   A
C179       C719 1.540   1_455   S
C180       C941 1.540       .   S
C181      C1043 1.540   1_556   S
C182       C755 1.540       .   S
C183       C977 1.540       .   S
C184       C935 1.540   1_545   S
C1013     C1014 0.031       .   A
C1013     C1018 0.031       .   A
C1014     C1015 0.031       .   A
C1014     N1021 0.032       .   A
C1015     C1016 0.031       .   A
C1015     N1020 0.032       .   A
C1016     C1017 0.031       .   A
C1016     C1019 0.036       .   A
C1017     C1018 0.031       .   A
C1017     H1023 0.025       .   A
C1018     H1022 0.025       .   A
C1019     O1024 0.034       .   A
C1019     C1026 0.036       .   A
C1019     H1034 0.026       .   A
N1020     H1047 0.024       .   A
N1020     H1048 0.024       .   A
N1021     H1045 0.024       .   A
N1021     H1046 0.024       .   A
O1024     C1033 0.034       .   A
C1025     C1026 0.036       .   A
C1025     H1029 0.025       .   A
C1025     H1030 0.025       .   A
C1025     C1033 0.036       .   A
C1026     H1028 0.025       .   A
C1026     H1031 0.025       .   A
C1027     C1033 0.036       .   A
C1027     O1035 0.034       .   A
C1027     C1037 0.036       .   A
C1027     H1044 0.026       .   A
H1032     C1033 0.026       .   A
O1035     C1043 0.034       .   A
C1036     C1037 0.035       .   A
C1036     H1039 0.025       .   A
C1036     H1040 0.025       .   A
C1036     C1043 0.036       .   A
C1037     H1038 0.025       .   A
C1037     H1041 0.025       .   A
H1042     C1043 0.025       .   A
C977       C978 0.031       .   A
C977       C982 0.031       .   A
C978       C979 0.031       .   A
C978       N985 0.032       .   A
C979       C980 0.031       .   A
C979       N984 0.032       .   A
C980       C981 0.031       .   A
C980       C983 0.036       .   A
C981       C982 0.031       .   A
C981       H987 0.025       .   A
C982       H986 0.025       .   A
C983       O988 0.034       .   A
C983       C990 0.036       .   A
C983       H998 0.026       .   A
N984      H1011 0.024       .   A
N984      H1012 0.024       .   A
N985      H1009 0.024       .   A
N985      H1010 0.024       .   A
O988       C997 0.034       .   A
C989       C990 0.036       .   A
C989       H993 0.025       .   A
C989       H994 0.025       .   A
C989       C997 0.036       .   A
C990       H992 0.025       .   A
C990       H995 0.025       .   A
C991       C997 0.036       .   A
C991       O999 0.034       .   A
C991      C1001 0.036       .   A
C991      H1008 0.026       .   A
H996       C997 0.026       .   A
O999      C1007 0.034       .   A
C1000     C1001 0.035       .   A
C1000     H1003 0.025       .   A
C1000     H1004 0.025       .   A
C1000     C1007 0.036       .   A
C1001     H1002 0.025       .   A
C1001     H1005 0.025       .   A
H1006     C1007 0.025       .   A
C941       C942 0.031       .   A
C941       C946 0.031       .   A
C942       C943 0.031       .   A
C942       N949 0.032       .   A
C943       C944 0.031       .   A
C943       N948 0.032       .   A
C944       C945 0.031       .   A
C944       C947 0.036       .   A
C945       C946 0.031       .   A
C945       H951 0.025       .   A
C946       H950 0.025       .   A
C947       O952 0.034       .   A
C947       C954 0.036       .   A
C947       H962 0.026       .   A
N948       H975 0.024       .   A
N948       H976 0.024       .   A
N949       H973 0.024       .   A
N949       H974 0.024       .   A
O952       C961 0.034       .   A
C953       C954 0.036       .   A
C953       H957 0.025       .   A
C953       H958 0.025       .   A
C953       C961 0.036       .   A
C954       H956 0.025       .   A
C954       H959 0.025       .   A
C955       C961 0.036       .   A
C955       O963 0.034       .   A
C955       C965 0.036       .   A
C955       H972 0.026       .   A
H960       C961 0.026       .   A
O963       C971 0.034       .   A
C964       C965 0.035       .   A
C964       H967 0.025       .   A
C964       H968 0.025       .   A
C964       C971 0.036       .   A
C965       H966 0.025       .   A
C965       H969 0.025       .   A
H970       C971 0.025       .   A
C905       C906 0.031       .   A
C905       C910 0.031       .   A
C906       C907 0.031       .   A
C906       N913 0.032       .   A
C907       C908 0.031       .   A
C907       N912 0.032       .   A
C908       C909 0.031       .   A
C908       C911 0.036       .   A
C909       C910 0.031       .   A
C909       H915 0.025       .   A
C910       H914 0.025       .   A
C911       O916 0.034       .   A
C911       C918 0.036       .   A
C911       H926 0.026       .   A
N912       H939 0.024       .   A
N912       H940 0.024       .   A
N913       H937 0.024       .   A
N913       H938 0.024       .   A
O916       C925 0.034       .   A
C917       C918 0.036       .   A
C917       H921 0.025       .   A
C917       H922 0.025       .   A
C917       C925 0.036       .   A
C918       H920 0.025       .   A
C918       H923 0.025       .   A
C919       C925 0.036       .   A
C919       O927 0.034       .   A
C919       C929 0.036       .   A
C919       H936 0.026       .   A
H924       C925 0.026       .   A
O927       C935 0.034       .   A
C928       C929 0.035       .   A
C928       H931 0.025       .   A
C928       H932 0.025       .   A
C928       C935 0.036       .   A
C929       H930 0.025       .   A
C929       H933 0.025       .   A
H934       C935 0.025       .   A
C869       C870 0.031       .   A
C869       C874 0.031       .   A
C870       C871 0.031       .   A
C870       N877 0.032       .   A
C871       C872 0.031       .   A
C871       N876 0.032       .   A
C872       C873 0.031       .   A
C872       C875 0.036       .   A
C873       C874 0.031       .   A
C873       H879 0.025       .   A
C874       H878 0.025       .   A
C875       O880 0.034       .   A
C875       C882 0.036       .   A
C875       H890 0.026       .   A
N876       H903 0.024       .   A
N876       H904 0.024       .   A
N877       H901 0.024       .   A
N877       H902 0.024       .   A
O880       C889 0.034       .   A
C881       C882 0.036       .   A
C881       H885 0.025       .   A
C881       H886 0.025       .   A
C881       C889 0.036       .   A
C882       H884 0.025       .   A
C882       H887 0.025       .   A
C883       C889 0.036       .   A
C883       O891 0.034       .   A
C883       C893 0.036       .   A
C883       H900 0.026       .   A
H888       C889 0.026       .   A
O891       C899 0.034       .   A
C892       C893 0.035       .   A
C892       H895 0.025       .   A
C892       H896 0.025       .   A
C892       C899 0.036       .   A
C893       H894 0.025       .   A
C893       H897 0.025       .   A
H898       C899 0.025       .   A
C833       C834 0.031       .   A
C833       C838 0.031       .   A
C834       C835 0.031       .   A
C834       N841 0.032       .   A
C835       C836 0.031       .   A
C835       N840 0.032       .   A
C836       C837 0.031       .   A
C836       C839 0.036       .   A
C837       C838 0.031       .   A
C837       H843 0.025       .   A
C838       H842 0.025       .   A
C839       O844 0.034       .   A
C839       C846 0.036       .   A
C839       H854 0.026       .   A
N840       H867 0.024       .   A
N840       H868 0.024       .   A
N841       H865 0.024       .   A
N841       H866 0.024       .   A
O844       C853 0.034       .   A
C845       C846 0.036       .   A
C845       H849 0.025       .   A
C845       H850 0.025       .   A
C845       C853 0.036       .   A
C846       H848 0.025       .   A
C846       H851 0.025       .   A
C847       C853 0.036       .   A
C847       O855 0.034       .   A
C847       C857 0.036       .   A
C847       H864 0.026       .   A
H852       C853 0.026       .   A
O855       C863 0.034       .   A
C856       C857 0.035       .   A
C856       H859 0.025       .   A
C856       H860 0.025       .   A
C856       C863 0.036       .   A
C857       H858 0.025       .   A
C857       H861 0.025       .   A
H862       C863 0.025       .   A
C797       C798 0.031       .   A
C797       C802 0.031       .   A
C798       C799 0.031       .   A
C798       N805 0.032       .   A
C799       C800 0.031       .   A
C799       N804 0.032       .   A
C800       C801 0.031       .   A
C800       C803 0.036       .   A
C801       C802 0.031       .   A
C801       H807 0.025       .   A
C802       H806 0.025       .   A
C803       O808 0.034       .   A
C803       C810 0.036       .   A
C803       H818 0.026       .   A
N804       H831 0.024       .   A
N804       H832 0.024       .   A
N805       H829 0.024       .   A
N805       H830 0.024       .   A
O808       C817 0.034       .   A
C809       C810 0.036       .   A
C809       H813 0.025       .   A
C809       H814 0.025       .   A
C809       C817 0.036       .   A
C810       H812 0.025       .   A
C810       H815 0.025       .   A
C811       C817 0.036       .   A
C811       O819 0.034       .   A
C811       C821 0.036       .   A
C811       H828 0.026       .   A
H816       C817 0.026       .   A
O819       C827 0.034       .   A
C820       C821 0.035       .   A
C820       H823 0.025       .   A
C820       H824 0.025       .   A
C820       C827 0.036       .   A
C821       H822 0.025       .   A
C821       H825 0.025       .   A
H826       C827 0.025       .   A
C761       C762 0.031       .   A
C761       C766 0.031       .   A
C762       C763 0.031       .   A
C762       N769 0.032       .   A
C763       C764 0.031       .   A
C763       N768 0.032       .   A
C764       C765 0.031       .   A
C764       C767 0.036       .   A
C765       C766 0.031       .   A
C765       H771 0.025       .   A
C766       H770 0.025       .   A
C767       O772 0.034       .   A
C767       C774 0.036       .   A
C767       H782 0.026       .   A
N768       H795 0.024       .   A
N768       H796 0.024       .   A
N769       H793 0.024       .   A
N769       H794 0.024       .   A
O772       C781 0.034       .   A
C773       C774 0.036       .   A
C773       H777 0.025       .   A
C773       H778 0.025       .   A
C773       C781 0.036       .   A
C774       H776 0.025       .   A
C774       H779 0.025       .   A
C775       C781 0.036       .   A
C775       O783 0.034       .   A
C775       C785 0.036       .   A
C775       H792 0.026       .   A
H780       C781 0.026       .   A
O783       C791 0.034       .   A
C784       C785 0.035       .   A
C784       H787 0.025       .   A
C784       H788 0.025       .   A
C784       C791 0.036       .   A
C785       H786 0.025       .   A
C785       H789 0.025       .   A
H790       C791 0.025       .   A
C725       C726 0.031       .   A
C725       C730 0.031       .   A
C726       C727 0.031       .   A
C726       N733 0.032       .   A
C727       C728 0.031       .   A
C727       N732 0.032       .   A
C728       C729 0.031       .   A
C728       C731 0.036       .   A
C729       C730 0.031       .   A
C729       H735 0.025       .   A
C730       H734 0.025       .   A
C731       O736 0.034       .   A
C731       C738 0.036       .   A
C731       H746 0.026       .   A
N732       H759 0.024       .   A
N732       H760 0.024       .   A
N733       H757 0.024       .   A
N733       H758 0.024       .   A
O736       C745 0.034       .   A
C737       C738 0.036       .   A
C737       H741 0.025       .   A
C737       H742 0.025       .   A
C737       C745 0.036       .   A
C738       H740 0.025       .   A
C738       H743 0.025       .   A
C739       C745 0.036       .   A
C739       O747 0.034       .   A
C739       C749 0.036       .   A
C739       H756 0.026       .   A
H744       C745 0.026       .   A
O747       C755 0.034       .   A
C748       C749 0.035       .   A
C748       H751 0.025       .   A
C748       H752 0.025       .   A
C748       C755 0.036       .   A
C749       H750 0.025       .   A
C749       H753 0.025       .   A
H754       C755 0.025       .   A
C689       C690 0.031       .   A
C689       C694 0.031       .   A
C690       C691 0.031       .   A
C690       N697 0.032       .   A
C691       C692 0.031       .   A
C691       N696 0.032       .   A
C692       C693 0.031       .   A
C692       C695 0.036       .   A
C693       C694 0.031       .   A
C693       H699 0.025       .   A
C694       H698 0.025       .   A
C695       O700 0.034       .   A
C695       C702 0.036       .   A
C695       H710 0.026       .   A
N696       H723 0.024       .   A
N696       H724 0.024       .   A
N697       H721 0.024       .   A
N697       H722 0.024       .   A
O700       C709 0.034       .   A
C701       C702 0.036       .   A
C701       H705 0.025       .   A
C701       H706 0.025       .   A
C701       C709 0.036       .   A
C702       H704 0.025       .   A
C702       H707 0.025       .   A
C703       C709 0.036       .   A
C703       O711 0.034       .   A
C703       C713 0.036       .   A
C703       H720 0.026       .   A
H708       C709 0.026       .   A
O711       C719 0.034       .   A
C712       C713 0.035       .   A
C712       H715 0.025       .   A
C712       H716 0.025       .   A
C712       C719 0.036       .   A
C713       H714 0.025       .   A
C713       H717 0.025       .   A
H718       C719 0.025       .   A
C653       C654 0.031       .   A
C653       C658 0.031       .   A
C654       C655 0.031       .   A
C654       N661 0.032       .   A
C655       C656 0.031       .   A
C655       N660 0.032       .   A
C656       C657 0.031       .   A
C656       C659 0.036       .   A
C657       C658 0.031       .   A
C657       H663 0.025       .   A
C658       H662 0.025       .   A
C659       O664 0.034       .   A
C659       C666 0.036       .   A
C659       H674 0.026       .   A
N660       H687 0.024       .   A
N660       H688 0.024       .   A
N661       H685 0.024       .   A
N661       H686 0.024       .   A
O664       C673 0.034       .   A
C665       C666 0.036       .   A
C665       H669 0.025       .   A
C665       H670 0.025       .   A
C665       C673 0.036       .   A
C666       H668 0.025       .   A
C666       H671 0.025       .   A
C667       C673 0.036       .   A
C667       O675 0.034       .   A
C667       C677 0.036       .   A
C667       H684 0.026       .   A
H672       C673 0.026       .   A
O675       C683 0.034       .   A
C676       C677 0.035       .   A
C676       H679 0.025       .   A
C676       H680 0.025       .   A
C676       C683 0.036       .   A
C677       H678 0.025       .   A
C677       H681 0.025       .   A
H682       C683 0.025       .   A
C617       C618 0.031       .   A
C617       C622 0.031       .   A
C618       C619 0.031       .   A
C618       N625 0.032       .   A
C619       C620 0.031       .   A
C619       N624 0.032       .   A
C620       C621 0.031       .   A
C620       C623 0.036       .   A
C621       C622 0.031       .   A
C621       H627 0.025       .   A
C622       H626 0.025       .   A
C623       O628 0.034       .   A
C623       C630 0.036       .   A
C623       H638 0.026       .   A
N624       H651 0.024       .   A
N624       H652 0.024       .   A
N625       H649 0.024       .   A
N625       H650 0.024       .   A
O628       C637 0.034       .   A
C629       C630 0.036       .   A
C629       H633 0.025       .   A
C629       H634 0.025       .   A
C629       C637 0.036       .   A
C630       H632 0.025       .   A
C630       H635 0.025       .   A
C631       C637 0.036       .   A
C631       O639 0.034       .   A
C631       C641 0.036       .   A
C631       H648 0.026       .   A
H636       C637 0.026       .   A
O639       C647 0.034       .   A
C640       C641 0.035       .   A
C640       H643 0.025       .   A
C640       H644 0.025       .   A
C640       C647 0.036       .   A
C641       H642 0.025       .   A
C641       H645 0.025       .   A
H646       C647 0.025       .   A
C581       C582 0.031       .   A
C581       C586 0.031       .   A
C582       C583 0.031       .   A
C582       N589 0.032       .   A
C583       C584 0.031       .   A
C583       N588 0.032       .   A
C584       C585 0.031       .   A
C584       C587 0.036       .   A
C585       C586 0.031       .   A
C585       H591 0.025       .   A
C586       H590 0.025       .   A
C587       O592 0.034       .   A
C587       C594 0.036       .   A
C587       H602 0.026       .   A
N588       H615 0.024       .   A
N588       H616 0.024       .   A
N589       H613 0.024       .   A
N589       H614 0.024       .   A
O592       C601 0.034       .   A
C593       C594 0.036       .   A
C593       H597 0.025       .   A
C593       H598 0.025       .   A
C593       C601 0.036       .   A
C594       H596 0.025       .   A
C594       H599 0.025       .   A
C595       C601 0.036       .   A
C595       O603 0.034       .   A
C595       C605 0.036       .   A
C595       H612 0.026       .   A
H600       C601 0.026       .   A
O603       C611 0.034       .   A
C604       C605 0.035       .   A
C604       H607 0.025       .   A
C604       H608 0.025       .   A
C604       C611 0.036       .   A
C605       H606 0.025       .   A
C605       H609 0.025       .   A
H610       C611 0.025       .   A
C545       C546 0.031       .   A
C545       C550 0.031       .   A
C546       C547 0.031       .   A
C546       N553 0.032       .   A
C547       C548 0.031       .   A
C547       N552 0.032       .   A
C548       C549 0.031       .   A
C548       C551 0.036       .   A
C549       C550 0.031       .   A
C549       H555 0.025       .   A
C550       H554 0.025       .   A
C551       O556 0.034       .   A
C551       C558 0.036       .   A
C551       H566 0.026       .   A
N552       H579 0.024       .   A
N552       H580 0.024       .   A
N553       H577 0.024       .   A
N553       H578 0.024       .   A
O556       C565 0.034       .   A
C557       C558 0.036       .   A
C557       H561 0.025       .   A
C557       H562 0.025       .   A
C557       C565 0.036       .   A
C558       H560 0.025       .   A
C558       H563 0.025       .   A
C559       C565 0.036       .   A
C559       O567 0.034       .   A
C559       C569 0.036       .   A
C559       H576 0.026       .   A
H564       C565 0.026       .   A
O567       C575 0.034       .   A
C568       C569 0.035       .   A
C568       H571 0.025       .   A
C568       H572 0.025       .   A
C568       C575 0.036       .   A
C569       H570 0.025       .   A
C569       H573 0.025       .   A
H574       C575 0.025       .   A
C509       C510 0.031       .   A
C509       C514 0.031       .   A
C510       C511 0.031       .   A
C510       N517 0.032       .   A
C511       C512 0.031       .   A
C511       N516 0.032       .   A
C512       C513 0.031       .   A
C512       C515 0.036       .   A
C513       C514 0.031       .   A
C513       H519 0.025       .   A
C514       H518 0.025       .   A
C515       O520 0.034       .   A
C515       C522 0.036       .   A
C515       H530 0.026       .   A
N516       H543 0.024       .   A
N516       H544 0.024       .   A
N517       H541 0.024       .   A
N517       H542 0.024       .   A
O520       C529 0.034       .   A
C521       C522 0.036       .   A
C521       H525 0.025       .   A
C521       H526 0.025       .   A
C521       C529 0.036       .   A
C522       H524 0.025       .   A
C522       H527 0.025       .   A
C523       C529 0.036       .   A
C523       O531 0.034       .   A
C523       C533 0.036       .   A
C523       H540 0.026       .   A
H528       C529 0.026       .   A
O531       C539 0.034       .   A
C532       C533 0.035       .   A
C532       H535 0.025       .   A
C532       H536 0.025       .   A
C532       C539 0.036       .   A
C533       H534 0.025       .   A
C533       H537 0.025       .   A
H538       C539 0.025       .   A
C473       C474 0.031       .   A
C473       C478 0.031       .   A
C474       C475 0.031       .   A
C474       N481 0.032       .   A
C475       C476 0.031       .   A
C475       N480 0.032       .   A
C476       C477 0.031       .   A
C476       C479 0.036       .   A
C477       C478 0.031       .   A
C477       H483 0.025       .   A
C478       H482 0.025       .   A
C479       O484 0.034       .   A
C479       C486 0.036       .   A
C479       H494 0.026       .   A
N480       H507 0.024       .   A
N480       H508 0.024       .   A
N481       H505 0.024       .   A
N481       H506 0.024       .   A
O484       C493 0.034       .   A
C485       C486 0.036       .   A
C485       H489 0.025       .   A
C485       H490 0.025       .   A
C485       C493 0.036       .   A
C486       H488 0.025       .   A
C486       H491 0.025       .   A
C487       C493 0.036       .   A
C487       O495 0.034       .   A
C487       C497 0.036       .   A
C487       H504 0.026       .   A
H492       C493 0.026       .   A
O495       C503 0.034       .   A
C496       C497 0.035       .   A
C496       H499 0.025       .   A
C496       H500 0.025       .   A
C496       C503 0.036       .   A
C497       H498 0.025       .   A
C497       H501 0.025       .   A
H502       C503 0.025       .   A
C437       C438 0.031       .   A
C437       C442 0.031       .   A
C438       C439 0.031       .   A
C438       N445 0.032       .   A
C439       C440 0.031       .   A
C439       N444 0.032       .   A
C440       C441 0.031       .   A
C440       C443 0.036       .   A
C441       C442 0.031       .   A
C441       H447 0.025       .   A
C442       H446 0.025       .   A
C443       O448 0.034       .   A
C443       C450 0.036       .   A
C443       H458 0.026       .   A
N444       H471 0.024       .   A
N444       H472 0.024       .   A
N445       H469 0.024       .   A
N445       H470 0.024       .   A
O448       C457 0.034       .   A
C449       C450 0.036       .   A
C449       H453 0.025       .   A
C449       H454 0.025       .   A
C449       C457 0.036       .   A
C450       H452 0.025       .   A
C450       H455 0.025       .   A
C451       C457 0.036       .   A
C451       O459 0.034       .   A
C451       C461 0.036       .   A
C451       H468 0.026       .   A
H456       C457 0.026       .   A
O459       C467 0.034       .   A
C460       C461 0.035       .   A
C460       H463 0.025       .   A
C460       H464 0.025       .   A
C460       C467 0.036       .   A
C461       H462 0.025       .   A
C461       H465 0.025       .   A
H466       C467 0.025       .   A
C401       C402 0.031       .   A
C401       C406 0.031       .   A
C402       C403 0.031       .   A
C402       N409 0.032       .   A
C403       C404 0.031       .   A
C403       N408 0.032       .   A
C404       C405 0.031       .   A
C404       C407 0.036       .   A
C405       C406 0.031       .   A
C405       H411 0.025       .   A
C406       H410 0.025       .   A
C407       O412 0.034       .   A
C407       C414 0.036       .   A
C407       H422 0.026       .   A
N408       H435 0.024       .   A
N408       H436 0.024       .   A
N409       H433 0.024       .   A
N409       H434 0.024       .   A
O412       C421 0.034       .   A
C413       C414 0.036       .   A
C413       H417 0.025       .   A
C413       H418 0.025       .   A
C413       C421 0.036       .   A
C414       H416 0.025       .   A
C414       H419 0.025       .   A
C415       C421 0.036       .   A
C415       O423 0.034       .   A
C415       C425 0.036       .   A
C415       H432 0.026       .   A
H420       C421 0.026       .   A
O423       C431 0.034       .   A
C424       C425 0.035       .   A
C424       H427 0.025       .   A
C424       H428 0.025       .   A
C424       C431 0.036       .   A
C425       H426 0.025       .   A
C425       H429 0.025       .   A
H430       C431 0.025       .   A
C365       C366 0.031       .   A
C365       C370 0.031       .   A
C366       C367 0.031       .   A
C366       N373 0.032       .   A
C367       C368 0.031       .   A
C367       N372 0.032       .   A
C368       C369 0.031       .   A
C368       C371 0.036       .   A
C369       C370 0.031       .   A
C369       H375 0.025       .   A
C370       H374 0.025       .   A
C371       O376 0.034       .   A
C371       C378 0.036       .   A
C371       H386 0.026       .   A
N372       H399 0.024       .   A
N372       H400 0.024       .   A
N373       H397 0.024       .   A
N373       H398 0.024       .   A
O376       C385 0.034       .   A
C377       C378 0.036       .   A
C377       H381 0.025       .   A
C377       H382 0.025       .   A
C377       C385 0.036       .   A
C378       H380 0.025       .   A
C378       H383 0.025       .   A
C379       C385 0.036       .   A
C379       O387 0.034       .   A
C379       C389 0.036       .   A
C379       H396 0.026       .   A
H384       C385 0.026       .   A
O387       C395 0.034       .   A
C388       C389 0.035       .   A
C388       H391 0.025       .   A
C388       H392 0.025       .   A
C388       C395 0.036       .   A
C389       H390 0.025       .   A
C389       H393 0.025       .   A
H394       C395 0.025       .   A
C329       C330 0.031       .   A
C329       C334 0.031       .   A
C330       C331 0.031       .   A
C330       N337 0.032       .   A
C331       C332 0.031       .   A
C331       N336 0.032       .   A
C332       C333 0.031       .   A
C332       C335 0.036       .   A
C333       C334 0.031       .   A
C333       H339 0.025       .   A
C334       H338 0.025       .   A
C335       O340 0.034       .   A
C335       C342 0.036       .   A
C335       H350 0.026       .   A
N336       H363 0.024       .   A
N336       H364 0.024       .   A
N337       H361 0.024       .   A
N337       H362 0.024       .   A
O340       C349 0.034       .   A
C341       C342 0.036       .   A
C341       H345 0.025       .   A
C341       H346 0.025       .   A
C341       C349 0.036       .   A
C342       H344 0.025       .   A
C342       H347 0.025       .   A
C343       C349 0.036       .   A
C343       O351 0.034       .   A
C343       C353 0.036       .   A
C343       H360 0.026       .   A
H348       C349 0.026       .   A
O351       C359 0.034       .   A
C352       C353 0.035       .   A
C352       H355 0.025       .   A
C352       H356 0.025       .   A
C352       C359 0.036       .   A
C353       H354 0.025       .   A
C353       H357 0.025       .   A
H358       C359 0.025       .   A
C293       C294 0.031       .   A
C293       C298 0.031       .   A
C294       C295 0.031       .   A
C294       N301 0.032       .   A
C295       C296 0.031       .   A
C295       N300 0.032       .   A
C296       C297 0.031       .   A
C296       C299 0.036       .   A
C297       C298 0.031       .   A
C297       H303 0.025       .   A
C298       H302 0.025       .   A
C299       O304 0.034       .   A
C299       C306 0.036       .   A
C299       H314 0.026       .   A
N300       H327 0.024       .   A
N300       H328 0.024       .   A
N301       H325 0.024       .   A
N301       H326 0.024       .   A
O304       C313 0.034       .   A
C305       C306 0.036       .   A
C305       H309 0.025       .   A
C305       H310 0.025       .   A
C305       C313 0.036       .   A
C306       H308 0.025       .   A
C306       H311 0.025       .   A
C307       C313 0.036       .   A
C307       O315 0.034       .   A
C307       C317 0.036       .   A
C307       H324 0.026       .   A
H312       C313 0.026       .   A
O315       C323 0.034       .   A
C316       C317 0.035       .   A
C316       H319 0.025       .   A
C316       H320 0.025       .   A
C316       C323 0.036       .   A
C317       H318 0.025       .   A
C317       H321 0.025       .   A
H322       C323 0.025       .   A
C257       C258 0.031       .   A
C257       C262 0.031       .   A
C258       C259 0.031       .   A
C258       N265 0.032       .   A
C259       C260 0.031       .   A
C259       N264 0.032       .   A
C260       C261 0.031       .   A
C260       C263 0.036       .   A
C261       C262 0.031       .   A
C261       H267 0.025       .   A
C262       H266 0.025       .   A
C263       O268 0.034       .   A
C263       C270 0.036       .   A
C263       H278 0.026       .   A
N264       H291 0.024       .   A
N264       H292 0.024       .   A
N265       H289 0.024       .   A
N265       H290 0.024       .   A
O268       C277 0.034       .   A
C269       C270 0.036       .   A
C269       H273 0.025       .   A
C269       H274 0.025       .   A
C269       C277 0.036       .   A
C270       H272 0.025       .   A
C270       H275 0.025       .   A
C271       C277 0.036       .   A
C271       O279 0.034       .   A
C271       C281 0.036       .   A
C271       H288 0.026       .   A
H276       C277 0.026       .   A
O279       C287 0.034       .   A
C280       C281 0.035       .   A
C280       H283 0.025       .   A
C280       H284 0.025       .   A
C280       C287 0.036       .   A
C281       H282 0.025       .   A
C281       H285 0.025       .   A
H286       C287 0.025       .   A
C221       C222 0.031       .   A
C221       C226 0.031       .   A
C222       C223 0.031       .   A
C222       N229 0.032       .   A
C223       C224 0.031       .   A
C223       N228 0.032       .   A
C224       C225 0.031       .   A
C224       C227 0.036       .   A
C225       C226 0.031       .   A
C225       H231 0.025       .   A
C226       H230 0.025       .   A
C227       O232 0.034       .   A
C227       C234 0.036       .   A
C227       H242 0.026       .   A
N228       H255 0.024       .   A
N228       H256 0.024       .   A
N229       H253 0.024       .   A
N229       H254 0.024       .   A
O232       C241 0.034       .   A
C233       C234 0.036       .   A
C233       H237 0.025       .   A
C233       H238 0.025       .   A
C233       C241 0.036       .   A
C234       H236 0.025       .   A
C234       H239 0.025       .   A
C235       C241 0.036       .   A
C235       O243 0.034       .   A
C235       C245 0.036       .   A
C235       H252 0.026       .   A
H240       C241 0.026       .   A
O243       C251 0.034       .   A
C244       C245 0.035       .   A
C244       H247 0.025       .   A
C244       H248 0.025       .   A
C244       C251 0.036       .   A
C245       H246 0.025       .   A
C245       H249 0.025       .   A
H250       C251 0.025       .   A
C185       C186 0.031       .   A
C185       C190 0.031       .   A
C186       C187 0.031       .   A
C186       N193 0.032       .   A
C187       C188 0.031       .   A
C187       N192 0.032       .   A
C188       C189 0.031       .   A
C188       C191 0.036       .   A
C189       C190 0.031       .   A
C189       H195 0.025       .   A
C190       H194 0.025       .   A
C191       O196 0.034       .   A
C191       C198 0.036       .   A
C191       H206 0.026       .   A
N192       H219 0.024       .   A
N192       H220 0.024       .   A
N193       H217 0.024       .   A
N193       H218 0.024       .   A
O196       C205 0.034       .   A
C197       C198 0.036       .   A
C197       H201 0.025       .   A
C197       H202 0.025       .   A
C197       C205 0.036       .   A
C198       H200 0.025       .   A
C198       H203 0.025       .   A
C199       C205 0.036       .   A
C199       O207 0.034       .   A
C199       C209 0.036       .   A
C199       H216 0.026       .   A
H204       C205 0.026       .   A
O207       C215 0.034       .   A
C208       C209 0.035       .   A
C208       H211 0.025       .   A
C208       H212 0.025       .   A
C208       C215 0.036       .   A
C209       H210 0.025       .   A
C209       H213 0.025       .   A
H214       C215 0.025       .   A
