data_pcu_v1-6c_Zn_1_Ch_1-87_fer_tobacco
_audit_creation_date              2021-02-03
_audit_creation_method            'tobacco_3.0'
_symmetry_space_group_name_H-M    'P1'
_symmetry_Int_Tables_number       1
_symmetry_cell_setting            triclinic
loop_
_symmetry_equiv_pos_as_xyz
  x,y,z
_cell_length_a                    38.49425253659865
_cell_length_b                    38.49425253659865
_cell_length_c                    38.49425253659865
_cell_angle_alpha                 90.0
_cell_angle_beta                  90.0
_cell_angle_gamma                 90.0
loop_
_atom_site_label
_atom_site_type_symbol
_atom_site_fract_x
_atom_site_fract_y
_atom_site_fract_z
_atom_site_charge
Zn1       Zn   -0.0291264261   -0.0291264261    0.0291264261          1.4972
Zn2       Zn    0.0291264261    0.0291264261    0.0291264261          1.4936
Zn3       Zn    0.0291264261   -0.0291264261   -0.0291264261          1.4911
Zn4       Zn   -0.0291264261    0.0291264261   -0.0291264261          1.4948
O5         O    0.0000000000    0.0000000000    0.0000000000          -2.205
O6         O   -0.0214057930   -0.0214057930    0.0778453874         -1.1113
O7         O    0.0778453874    0.0214057930    0.0214057930         -1.1095
O8         O    0.0214057930   -0.0778453874   -0.0214057930         -1.1046
O9         O    0.0214057930    0.0214057930    0.0778453874         -1.1114
O10        O   -0.0214057930   -0.0778453874    0.0214057930         -1.1074
O11        O    0.0778453874   -0.0214057930   -0.0214057930         -1.1133
O12        O   -0.0214057930    0.0214057930   -0.0778453874         -1.1072
O13        O    0.0214057930    0.0778453874    0.0214057930         -1.1147
O14        O    0.0214057930   -0.0214057930   -0.0778453874         -1.1086
O15        O   -0.0214057930    0.0778453874   -0.0214057930         -1.1133
O16        O   -0.0778453874    0.0214057930   -0.0214057930         -1.1124
O17        O   -0.0778453874   -0.0214057930    0.0214057930         -1.1103
C18        C   -0.0000000000   -0.0000000000    0.0930736347          0.4076
C19        C    0.0930736347   -0.0000000000   -0.0000000000          0.4125
C20        C   -0.0000000000   -0.0930736347    0.0000000000          0.4021
C21        C    0.0000000000    0.0000000000   -0.0930736347          0.4059
C22        C    0.0000000000    0.0930736347   -0.0000000000          0.4172
C23        C   -0.0930736347    0.0000000000    0.0000000000          0.4077
Zn24      Zn    0.9708735739    0.0291264261    0.4708735739          1.4972
Zn25      Zn    1.0291264261   -0.0291264261    0.4708735739          1.4936
Zn26      Zn    1.0291264261    0.0291264261    0.5291264261          1.4911
Zn27      Zn    0.9708735739   -0.0291264261    0.5291264261          1.4948
O28        O    1.0000000000    0.0000000000    0.5000000000          -2.205
O29        O    0.9785942070    0.0214057930    0.4221546126         -1.1113
O30        O    1.0778453874   -0.0214057930    0.4785942070         -1.1095
O31        O    1.0214057930    0.0778453874    0.5214057930         -1.1046
O32        O    1.0214057930   -0.0214057930    0.4221546126         -1.1114
O33        O    0.9785942070    0.0778453874    0.4785942070         -1.1074
O34        O    1.0778453874    0.0214057930    0.5214057930         -1.1133
O35        O    0.9785942070   -0.0214057930    0.5778453874         -1.1072
O36        O    1.0214057930   -0.0778453874    0.4785942070         -1.1147
O37        O    1.0214057930    0.0214057930    0.5778453874         -1.1086
O38        O    0.9785942070   -0.0778453874    0.5214057930         -1.1133
O39        O    0.9221546126   -0.0214057930    0.5214057930         -1.1124
O40        O    0.9221546126    0.0214057930    0.4785942070         -1.1103
C41        C    1.0000000000    0.0000000000    0.4069263653          0.4076
C42        C    1.0930736347    0.0000000000    0.5000000000          0.4125
C43        C    1.0000000000    0.0930736347    0.5000000000          0.4021
C44        C    1.0000000000    0.0000000000    0.5930736347          0.4059
C45        C    1.0000000000   -0.0930736347    0.5000000000          0.4172
C46        C    0.9069263653    0.0000000000    0.5000000000          0.4077
Zn47      Zn    1.0291264261    0.4708735739   -0.0291264261          1.4972
Zn48      Zn    0.9708735739    0.4708735739    0.0291264261          1.4936
Zn49      Zn    1.0291264261    0.5291264261    0.0291264261          1.4911
Zn50      Zn    0.9708735739    0.5291264261   -0.0291264261          1.4948
O51        O    1.0000000000    0.5000000000    0.0000000000          -2.205
O52        O    1.0214057930    0.4221546126   -0.0214057930         -1.1113
O53        O    0.9785942070    0.4785942070    0.0778453874         -1.1095
O54        O    1.0778453874    0.5214057930    0.0214057930         -1.1046
O55        O    0.9785942070    0.4221546126    0.0214057930         -1.1114
O56        O    1.0778453874    0.4785942070   -0.0214057930         -1.1074
O57        O    1.0214057930    0.5214057930    0.0778453874         -1.1133
O58        O    0.9785942070    0.5778453874   -0.0214057930         -1.1072
O59        O    0.9221546126    0.4785942070    0.0214057930         -1.1147
O60        O    1.0214057930    0.5778453874    0.0214057930         -1.1086
O61        O    0.9221546126    0.5214057930   -0.0214057930         -1.1133
O62        O    0.9785942070    0.5214057930   -0.0778453874         -1.1124
O63        O    1.0214057930    0.4785942070   -0.0778453874         -1.1103
C64        C    1.0000000000    0.4069263653    0.0000000000          0.4076
C65        C    1.0000000000    0.5000000000    0.0930736347          0.4125
C66        C    1.0930736347    0.5000000000    0.0000000000          0.4021
C67        C    1.0000000000    0.5930736347    0.0000000000          0.4059
C68        C    0.9069263653    0.5000000000    0.0000000000          0.4172
C69        C    1.0000000000    0.5000000000   -0.0930736347          0.4077
Zn70      Zn    0.9708735739    0.4708735739    0.5291264261          1.4972
Zn71      Zn    1.0291264261    0.4708735739    0.4708735739          1.4936
Zn72      Zn    0.9708735739    0.5291264261    0.4708735739          1.4911
Zn73      Zn    1.0291264261    0.5291264261    0.5291264261          1.4948
O74        O    1.0000000000    0.5000000000    0.5000000000          -2.205
O75        O    0.9785942070    0.4221546126    0.5214057930         -1.1113
O76        O    1.0214057930    0.4785942070    0.4221546126         -1.1095
O77        O    0.9221546126    0.5214057930    0.4785942070         -1.1046
O78        O    1.0214057930    0.4221546126    0.4785942070         -1.1114
O79        O    0.9221546126    0.4785942070    0.5214057930         -1.1074
O80        O    0.9785942070    0.5214057930    0.4221546126         -1.1133
O81        O    1.0214057930    0.5778453874    0.5214057930         -1.1072
O82        O    1.0778453874    0.4785942070    0.4785942070         -1.1147
O83        O    0.9785942070    0.5778453874    0.4785942070         -1.1086
O84        O    1.0778453874    0.5214057930    0.5214057930         -1.1133
O85        O    1.0214057930    0.5214057930    0.5778453874         -1.1124
O86        O    0.9785942070    0.4785942070    0.5778453874         -1.1103
C87        C    1.0000000000    0.4069263653    0.5000000000          0.4076
C88        C    1.0000000000    0.5000000000    0.4069263653          0.4125
C89        C    0.9069263653    0.5000000000    0.5000000000          0.4021
C90        C    1.0000000000    0.5930736347    0.5000000000          0.4059
C91        C    1.0930736347    0.5000000000    0.5000000000          0.4172
C92        C    1.0000000000    0.5000000000    0.5930736347          0.4077
Zn93      Zn    0.4708735739    0.9708735739   -0.0291264261          1.4972
Zn94      Zn    0.4708735739    1.0291264261    0.0291264261          1.4936
Zn95      Zn    0.5291264261    0.9708735739    0.0291264261          1.4911
Zn96      Zn    0.5291264261    1.0291264261   -0.0291264261          1.4948
O97        O    0.5000000000    1.0000000000    0.0000000000          -2.205
O98        O    0.4221546126    0.9785942070   -0.0214057930         -1.1113
O99        O    0.4785942070    1.0214057930    0.0778453874         -1.1095
O100       O    0.5214057930    0.9221546126    0.0214057930         -1.1046
O101       O    0.4221546126    1.0214057930    0.0214057930         -1.1114
O102       O    0.4785942070    0.9221546126   -0.0214057930         -1.1074
O103       O    0.5214057930    0.9785942070    0.0778453874         -1.1133
O104       O    0.5778453874    1.0214057930   -0.0214057930         -1.1072
O105       O    0.4785942070    1.0778453874    0.0214057930         -1.1147
O106       O    0.5778453874    0.9785942070    0.0214057930         -1.1086
O107       O    0.5214057930    1.0778453874   -0.0214057930         -1.1133
O108       O    0.5214057930    1.0214057930   -0.0778453874         -1.1124
O109       O    0.4785942070    0.9785942070   -0.0778453874         -1.1103
C110       C    0.4069263653    1.0000000000    0.0000000000          0.4076
C111       C    0.5000000000    1.0000000000    0.0930736347          0.4125
C112       C    0.5000000000    0.9069263653    0.0000000000          0.4021
C113       C    0.5930736347    1.0000000000    0.0000000000          0.4059
C114       C    0.5000000000    1.0930736347    0.0000000000          0.4172
C115       C    0.5000000000    1.0000000000   -0.0930736347          0.4077
Zn116     Zn    0.4708735739    1.0291264261    0.5291264261          1.4972
Zn117     Zn    0.4708735739    0.9708735739    0.4708735739          1.4936
Zn118     Zn    0.5291264261    1.0291264261    0.4708735739          1.4911
Zn119     Zn    0.5291264261    0.9708735739    0.5291264261          1.4948
O120       O    0.5000000000    1.0000000000    0.5000000000          -2.205
O121       O    0.4221546126    1.0214057930    0.5214057930         -1.1113
O122       O    0.4785942070    0.9785942070    0.4221546126         -1.1095
O123       O    0.5214057930    1.0778453874    0.4785942070         -1.1046
O124       O    0.4221546126    0.9785942070    0.4785942070         -1.1114
O125       O    0.4785942070    1.0778453874    0.5214057930         -1.1074
O126       O    0.5214057930    1.0214057930    0.4221546126         -1.1133
O127       O    0.5778453874    0.9785942070    0.5214057930         -1.1072
O128       O    0.4785942070    0.9221546126    0.4785942070         -1.1147
O129       O    0.5778453874    1.0214057930    0.4785942070         -1.1086
O130       O    0.5214057930    0.9221546126    0.5214057930         -1.1133
O131       O    0.5214057930    0.9785942070    0.5778453874         -1.1124
O132       O    0.4785942070    1.0214057930    0.5778453874         -1.1103
C133       C    0.4069263653    1.0000000000    0.5000000000          0.4076
C134       C    0.5000000000    1.0000000000    0.4069263653          0.4125
C135       C    0.5000000000    1.0930736347    0.5000000000          0.4021
C136       C    0.5930736347    1.0000000000    0.5000000000          0.4059
C137       C    0.5000000000    0.9069263653    0.5000000000          0.4172
C138       C    0.5000000000    1.0000000000    0.5930736347          0.4077
Zn139     Zn    0.4708735739    0.5291264261   -0.0291264261          1.4972
Zn140     Zn    0.4708735739    0.4708735739    0.0291264261          1.4936
Zn141     Zn    0.5291264261    0.4708735739   -0.0291264261          1.4911
Zn142     Zn    0.5291264261    0.5291264261    0.0291264261          1.4948
O143       O    0.5000000000    0.5000000000    0.0000000000          -2.205
O144       O    0.4221546126    0.5214057930   -0.0214057930         -1.1113
O145       O    0.4785942070    0.4221546126    0.0214057930         -1.1095
O146       O    0.5214057930    0.4785942070   -0.0778453874         -1.1046
O147       O    0.4221546126    0.4785942070    0.0214057930         -1.1114
O148       O    0.4785942070    0.5214057930   -0.0778453874         -1.1074
O149       O    0.5214057930    0.4221546126   -0.0214057930         -1.1133
O150       O    0.5778453874    0.5214057930    0.0214057930         -1.1072
O151       O    0.4785942070    0.4785942070    0.0778453874         -1.1147
O152       O    0.5778453874    0.4785942070   -0.0214057930         -1.1086
O153       O    0.5214057930    0.5214057930    0.0778453874         -1.1133
O154       O    0.5214057930    0.5778453874    0.0214057930         -1.1124
O155       O    0.4785942070    0.5778453874   -0.0214057930         -1.1103
C156       C    0.4069263653    0.5000000000    0.0000000000          0.4076
C157       C    0.5000000000    0.4069263653    0.0000000000          0.4125
C158       C    0.5000000000    0.5000000000   -0.0930736347          0.4021
C159       C    0.5930736347    0.5000000000    0.0000000000          0.4059
C160       C    0.5000000000    0.5000000000    0.0930736347          0.4172
C161       C    0.5000000000    0.5930736347    0.0000000000          0.4077
Zn162     Zn    0.5291264261    0.4708735739    0.5291264261          1.4972
Zn163     Zn    0.4708735739    0.4708735739    0.4708735739          1.4936
Zn164     Zn    0.4708735739    0.5291264261    0.5291264261          1.4911
Zn165     Zn    0.5291264261    0.5291264261    0.4708735739          1.4948
O166       O    0.5000000000    0.5000000000    0.5000000000          -2.205
O167       O    0.5214057930    0.4221546126    0.5214057930         -1.1113
O168       O    0.4221546126    0.4785942070    0.4785942070         -1.1095
O169       O    0.4785942070    0.5214057930    0.5778453874         -1.1046
O170       O    0.4785942070    0.4221546126    0.4785942070         -1.1114
O171       O    0.5214057930    0.4785942070    0.5778453874         -1.1074
O172       O    0.4221546126    0.5214057930    0.5214057930         -1.1133
O173       O    0.5214057930    0.5778453874    0.4785942070         -1.1072
O174       O    0.4785942070    0.4785942070    0.4221546126         -1.1147
O175       O    0.4785942070    0.5778453874    0.5214057930         -1.1086
O176       O    0.5214057930    0.5214057930    0.4221546126         -1.1133
O177       O    0.5778453874    0.5214057930    0.4785942070         -1.1124
O178       O    0.5778453874    0.4785942070    0.5214057930         -1.1103
C179       C    0.5000000000    0.4069263653    0.5000000000          0.4076
C180       C    0.4069263653    0.5000000000    0.5000000000          0.4125
C181       C    0.5000000000    0.5000000000    0.5930736347          0.4021
C182       C    0.5000000000    0.5930736347    0.5000000000          0.4059
C183       C    0.5000000000    0.5000000000    0.4069263653          0.4172
C184       C    0.5930736347    0.5000000000    0.5000000000          0.4077
C852       C    0.5000000000    0.5000000000   -0.3669203930         -0.3525
C853       C    0.4893883401    0.5276380265   -0.3485652235         -0.3434
C854       C    0.4955888197    0.5300909068   -0.3146636023         -0.3499
C855       C    0.5131961726    0.5055427366   -0.2978868327         -0.3662
C856       C    0.5246448904    0.4776895399   -0.3156723855          0.6239
C857       C    0.5174930715    0.4747311673   -0.3499661452          0.6313
C858       C    0.5200387102    0.5109976982   -0.2591879420          0.6266
H859       H    0.4864147539    0.5529083155   -0.3007201521          -0.342
H860       H    0.4752015030    0.5487896989   -0.3608190363         -0.3303
C861       C    0.5089220425    0.4140821206   -0.3600396612         -0.3611
C862       C    0.5474793114    0.4504842777   -0.2978493417          0.6029
H863       H    0.4927636757    0.4076893964   -0.3825075874         -0.3461
H864       H    0.4923249559    0.4174948152   -0.3371952283         -0.3469
H865       H    0.5272193199    0.3929033609   -0.3551667745          0.6223
O866       O    0.5285280484    0.4455618263   -0.3672218686          0.6218
H867       H    0.5632532892    0.4616215127   -0.2771135266          0.5882
H868       H    0.5315583774    0.4297540440   -0.2868379610          0.6166
H869       H    0.5659731589    0.4387201479   -0.3158395612          0.5868
C870       C    0.5033073825    0.4835712267   -0.2347649178         -0.3593
N871       N    0.5050697830    0.4943447837   -0.1978996113         -0.3619
N872       N    0.5182462930    0.5194201838   -0.2019874259          0.6266
N873       N    0.5250606635    0.5262280304   -0.2354960467          0.6215
C874       C    0.5011253227    0.4846453223   -0.1644744646         -0.3594
H875       H    0.4761726522    0.4792214542   -0.2420785209 -0.33409999999999995
H876       H    0.5170879321    0.4588861423   -0.2371896107          0.6283
H877       H    0.5479841109    0.5137247339   -0.2547484246          0.6015
C878       C    0.5000000000    0.5000000000   -0.1330796070         -0.3592
H879       H    0.5020555780    0.5281724113   -0.1310510995          -0.361
H880       H    0.4991875490    0.4561490038   -0.1661888886         -0.3578
C823       C    0.5000000000    0.5000000000    0.3669203930         -0.3525
C824       C    0.5276380265    0.4893883401    0.3485652235         -0.3434
C825       C    0.5300909068    0.4955888197    0.3146636023         -0.3499
C826       C    0.5055427366    0.5131961726    0.2978868327         -0.3662
C827       C    0.4776895399    0.5246448904    0.3156723855          0.6239
C828       C    0.4747311673    0.5174930715    0.3499661452          0.6313
C829       C    0.5109976982    0.5200387102    0.2591879420          0.6266
H830       H    0.5529083155    0.4864147539    0.3007201521          -0.342
H831       H    0.5487896989    0.4752015030    0.3608190363         -0.3303
C832       C    0.4140821206    0.5089220425    0.3600396612         -0.3611
C833       C    0.4504842777    0.5474793114    0.2978493417          0.6029
H834       H    0.4076893964    0.4927636757    0.3825075874         -0.3461
H835       H    0.4174948152    0.4923249559    0.3371952283         -0.3469
H836       H    0.3929033609    0.5272193199    0.3551667745          0.6223
O837       O    0.4455618263    0.5285280484    0.3672218686          0.6218
H838       H    0.4616215127    0.5632532892    0.2771135266          0.5882
H839       H    0.4297540440    0.5315583774    0.2868379610          0.6166
H840       H    0.4387201479    0.5659731589    0.3158395612          0.5868
C841       C    0.4835712267    0.5033073825    0.2347649178         -0.3593
N842       N    0.4943447837    0.5050697830    0.1978996113         -0.3619
N843       N    0.5194201838    0.5182462930    0.2019874259          0.6266
N844       N    0.5262280304    0.5250606635    0.2354960467          0.6215
C845       C    0.4846453223    0.5011253227    0.1644744646         -0.3594
H846       H    0.4792214542    0.4761726522    0.2420785209         -0.3349
H847       H    0.4588861423    0.5170879321    0.2371896107          0.6283
H848       H    0.5137247339    0.5479841109    0.2547484246          0.6015
C849       C    0.5000000000    0.5000000000    0.1330796070         -0.3592
H850       H    0.5281724113    0.5020555780    0.1310510995          -0.361
H851       H    0.4561490038    0.4991875490    0.1661888886         -0.3578
C794       C    0.5000000000    0.8669203930    0.5000000000         -0.3525
C795       C    0.5150980266    0.8485652235    0.4745339947         -0.3434
C796       C    0.5093969436    0.8146636023    0.4710756395         -0.3499
C797       C    0.4879207555    0.7978868327    0.4923219304         -0.3662
C798       C    0.4719614363    0.8156723855    0.5178596248          0.6239
C799       C    0.4785155696    0.8499661452    0.5219759119          0.6313
C800       C    0.4820903672    0.7591879420    0.4857963271          0.6266
H801       H    0.5222690074    0.8007201521    0.4501207451          -0.342
H802       H    0.5326323566    0.8608190363    0.4560622090         -0.3303
C803       C    0.4767901608    0.8600396612    0.5832032945         -0.3611
C804       C    0.4448864913    0.7978493417    0.5408484140          0.6029
H805       H    0.4916470144    0.8825075874    0.5922162651         -0.3461
H806       H    0.4937245495    0.8371952283    0.5826234261         -0.3469
H807       H    0.4551991054    0.8551667745    0.6010121841          0.6223
O808       O    0.4627433205    0.8672218686    0.5488805088          0.6218
H809       H    0.4312045546    0.7771135266    0.5272226667          0.5882
H810       H    0.4571039051    0.7868379610    0.5639558485          0.6166
H811       H    0.4246811235    0.8158395612    0.5493431334          0.5868
C812       C    0.4939832755    0.7347649178    0.5156410485         -0.3593
N813       N    0.4940533102    0.6978996113    0.5047245160         -0.3619
N814       N    0.4852704014    0.7019874259    0.4777939271          0.6266
N815       N    0.4796947515    0.7354960467    0.4699393393          0.6215
C816       C    0.4963146066    0.6644744646    0.5149482559         -0.3594
H817       H    0.5200036611    0.7420785209    0.5244815035         -0.3349
H818       H    0.4762566819    0.7371896107    0.5376643275          0.6283
H819       H    0.4549985582    0.7547484246    0.4784196047          0.6015
C820       C    0.5000000000    0.6330796070    0.5000000000         -0.3592
H821       H    0.5026999799    0.6310510995    0.4718820295          -0.361
H822       H    0.4934441509    0.6661888886    0.5433657790         -0.3578
C765       C    0.5000000000    1.1330796070    0.5000000000         -0.3525
C766       C    0.4723619735    1.1514347765    0.5106116599         -0.3434
C767       C    0.4699090932    1.1853363977    0.5044111803         -0.3499
C768       C    0.4944572634    1.2021131673    0.4868038274         -0.3662
C769       C    0.5223104601    1.1843276145    0.4753551096          0.6239
C770       C    0.5252688327    1.1500338548    0.4825069285          0.6313
C771       C    0.4890023018    1.2408120580    0.4799612898          0.6266
H772       H    0.4470916845    1.1992798479    0.5135852461          -0.342
H773       H    0.4512103011    1.1391809637    0.5247984970         -0.3303
C774       C    0.5859178794    1.1399603388    0.4910779575         -0.3611
C775       C    0.5495157223    1.2021506583    0.4525206886          0.6029
H776       H    0.5923106036    1.1174924126    0.5072363243         -0.3461
H777       H    0.5825051848    1.1628047717    0.5076750441         -0.3469
H778       H    0.6070966391    1.1448332255    0.4727806801          0.6223
O779       O    0.5544381737    1.1327781314    0.4714719516          0.6218
H780       H    0.5383784873    1.2228864734    0.4367467108          0.5882
H781       H    0.5702459560    1.2131620390    0.4684416226          0.6166
H782       H    0.5612798521    1.1841604388    0.4340268411          0.5868
C783       C    0.5164287733    1.2652350822    0.4966926175         -0.3593
N784       N    0.5056552163    1.3021003887    0.4949302170         -0.3619
N785       N    0.4805798162    1.2980125741    0.4817537070          0.6266
N786       N    0.4737719696    1.2645039533    0.4749393365          0.6215
C787       C    0.5153546777    1.3355255354    0.4988746773         -0.3594
H788       H    0.5207785458    1.2579214791    0.5238273478         -0.3349
H789       H    0.5411138577    1.2628103893    0.4829120679          0.6283
H790       H    0.4862752661    1.2452515754    0.4520158891          0.6015
C791       C    0.5000000000    1.3669203930    0.5000000000         -0.3592
H792       H    0.4718275887    1.3689489005    0.4979444220          -0.361
H793       H    0.5438509962    1.3338111114    0.5008124510         -0.3578
C736       C    0.5000000000    0.6330796070    0.0000000000         -0.3525
C737       C    0.5205982562    0.6514347765    0.0212645169         -0.3434
C738       C    0.5158559546    0.6853363977    0.0259520690         -0.3499
C739       C    0.4900335985    0.7021131673    0.0102728643         -0.3662
C740       C    0.4685809424    0.6843276145   -0.0108614029          0.6239
C741       C    0.4740002195    0.6500338548   -0.0163869725          0.6313
C742       C    0.4858776957    0.7408120580    0.0179738642          0.6266
H743       H    0.5332416658    0.6992798479    0.0433455928          -0.342
H744       H    0.5419422793    0.6391809637    0.0351602813         -0.3303
C745       C    0.4581058575    0.6399603388   -0.0755404903         -0.3611
C746       C    0.4369082521    0.7021506583   -0.0269355363          0.6029
H747       H    0.4704640157    0.6174924126   -0.0877566952         -0.3461
H748       H    0.4747120925    0.6628047717   -0.0789083871         -0.3469
H749       H    0.4329698877    0.6448332255   -0.0878495619          0.6223
O750       O    0.4524121464    0.6327781314   -0.0388942218          0.6218
H751       H    0.4267639216    0.7228864734   -0.0105054134          0.5882
H752       H    0.4434265733    0.7131620390   -0.0522481856          0.6166
H753       H    0.4152827158    0.6841604388   -0.0305067162          0.5868
C754       C    0.4905160798    0.7652350822   -0.0138166070         -0.3593
N755       N    0.4931188603    0.8021003887   -0.0032146676         -0.3619
N756       N    0.4908288651    0.7980125741    0.0250192133          0.6266
N757       N    0.4872293100    0.7645039533    0.0339537320          0.6215
C758       C    0.4929445555    0.8355255354   -0.0136840485         -0.3594
H759       H    0.5137727436    0.7579214791   -0.0284570203         -0.3349
H760       H    0.4681604422    0.7628103893   -0.0311221670          0.6283
H761       H    0.4612390315    0.7452515754    0.0314393153          0.6015
C762       C    0.5000000000    0.8669203930    0.0000000000         -0.3592
H763       H    0.5091547766    0.8689489005    0.0267226538          -0.361
H764       H    0.4835544103    0.8338111114   -0.0406584865         -0.3578
C707       C    0.5000000000    1.1330796070    0.0000000000         -0.3525
C708       C    0.4823793563    1.1514347765    0.0237903499         -0.3434
C709       C    0.4769811763    1.1853363977    0.0198759890         -0.3499
C710       C    0.4882393262    1.2021131673   -0.0081576622         -0.3662
C711       C    0.5055921271    1.1843276145   -0.0327697325          0.6239
C712       C    0.5119275079    1.1500338548   -0.0283241242          0.6313
C713       C    0.4799636716    1.2408120580   -0.0110020369          0.6266
H714       H    0.4626557962    1.1992798479    0.0398655139          -0.342
H715       H    0.4721504373    1.1391809637    0.0471147751         -0.3303
C716       C    0.5676970354    1.1399603388   -0.0536525512         -0.3611
C717       C    0.5162858368    1.2021506583   -0.0666398026          0.6029
H718       H    0.5817650849    1.1174924126   -0.0434520748         -0.3461
H719       H    0.5737280159    1.1628047717   -0.0378178728         -0.3469
H720       H    0.5757421066    1.1448332255   -0.0804593983          0.6223
O721       O    0.5306128262    1.1327781314   -0.0532937067          0.6218
H722       H    0.4984213173    1.2228864734   -0.0739688762          0.5882
H723       H    0.5423226334    1.2131620390   -0.0643367718          0.6166
H724       H    0.5162824811    1.1841604388   -0.0885582225          0.5868
C725       C    0.5120849856    1.2652350822   -0.0116101892         -0.3593
N726       N    0.5020494443    1.3021003887   -0.0073132721         -0.3619
N727       N    0.4738200860    1.2980125741   -0.0049681841          0.6266
N728       N    0.4644181563    1.2645039533   -0.0070624951          0.6215
C729       C    0.5123502414    1.3355255354   -0.0091926066         -0.3594
H730       H    0.5303221353    1.2579214791    0.0089475462         -0.3349
H731       H    0.5255130761    1.2628103893   -0.0364887608          0.6283
H732       H    0.4626603756    1.2452515754   -0.0331148860          0.6015
C733       C    0.5000000000    1.3669203930    0.0000000000         -0.3592
H734       H    0.4751280689    1.3689489005    0.0133901905          -0.361
H735       H    0.5374322017    1.3338111114   -0.0228560763         -0.3578
C678       C    0.5000000000    1.0000000000   -0.3669203930         -0.3525
C679       C    0.4890376104    1.0275007972   -0.3485652235         -0.3434
C680       C    0.4952063848    1.0300323565   -0.3146636023         -0.3499
C681       C    0.5131245946    1.0057101590   -0.2978868327         -0.3662
C682       C    0.5249267116    0.9780048574   -0.3156723855          0.6239
C683       C    0.5178131054    0.9749557445   -0.3499661452          0.6313
C684       C    0.5198971850    1.0112517244   -0.2591879420          0.6266
H685       H    0.4857427969    1.0527312139   -0.3007201521          -0.342
H686       H    0.4745828470    1.0484702848   -0.3608190363         -0.3303
C687       C    0.5100142974    0.9142025717   -0.3600396612         -0.3611
C688       C    0.5481053680    0.9510922773   -0.2978493417          0.6029
H689       H    0.4939385612    0.9076048114   -0.3825075874         -0.3461
H690       H    0.4933751403    0.9174038557   -0.3371952283         -0.3469
H691       H    0.5285795131    0.8932582888   -0.3551667745          0.6223
O692       O    0.5292182579    0.9459291418   -0.3672218686          0.6218
H693       H    0.5637363906    0.9624292747   -0.2771135266          0.5882
H694       H    0.5324494353    0.9301611880   -0.2868379610          0.6166
H695       H    0.5667473726    0.9395643630   -0.3158395612          0.5868
C696       C    0.5035161083    0.9836146299   -0.2347649178         -0.3593
N697       N    0.5051413138    0.9944097349   -0.1978996113         -0.3619
N698       N    0.5179977689    1.0196507268   -0.2019874259          0.6266
N699       N    0.5247249842    1.0265447094   -0.2354960467          0.6215
C700       C    0.5013205613    0.9846608802   -0.1644744646         -0.3594
H701       H    0.4764389079    0.9789200235   -0.2420785209         -0.3349
H702       H    0.5176095662    0.9591068478   -0.2371896107          0.6283
H703       H    0.5478056334    1.0143340379   -0.2547484246          0.6015
C704       C    0.5000000000    1.0000000000   -0.1330796070         -0.3592
H705       H    0.5016970253    1.0281962810   -0.1310510995          -0.361
H706       H    0.4997454512    0.9561422168   -0.1661888886         -0.3578
C649       C    0.5000000000    1.0000000000    0.3669203930         -0.3525
C650       C    0.5276380265    0.9893883401    0.3485652235         -0.3434
C651       C    0.5300909068    0.9955888197    0.3146636023         -0.3499
C652       C    0.5055427366    1.0131961726    0.2978868327         -0.3662
C653       C    0.4776895399    1.0246448904    0.3156723855          0.6239
C654       C    0.4747311673    1.0174930715    0.3499661452          0.6313
C655       C    0.5109976982    1.0200387102    0.2591879420          0.6266
H656       H    0.5529083155    0.9864147539    0.3007201521          -0.342
H657       H    0.5487896989    0.9752015030    0.3608190363         -0.3303
C658       C    0.4140821206    1.0089220425    0.3600396612         -0.3611
C659       C    0.4504842777    1.0474793114    0.2978493417          0.6029
H660       H    0.4076893964    0.9927636757    0.3825075874         -0.3461
H661       H    0.4174948152    0.9923249559    0.3371952283         -0.3469
H662       H    0.3929033609    1.0272193199    0.3551667745          0.6223
O663       O    0.4455618263    1.0285280484    0.3672218686          0.6218
H664       H    0.4616215127    1.0632532892    0.2771135266          0.5882
H665       H    0.4297540440    1.0315583774    0.2868379610          0.6166
H666       H    0.4387201479    1.0659731589    0.3158395612          0.5868
C667       C    0.4835712267    1.0033073825    0.2347649178         -0.3593
N668       N    0.4943447837    1.0050697830    0.1978996113         -0.3619
N669       N    0.5194201838    1.0182462930    0.2019874259          0.6266
N670       N    0.5262280304    1.0250606635    0.2354960467          0.6215
C671       C    0.4846453223    1.0011253227    0.1644744646         -0.3594
H672       H    0.4792214542    0.9761726522    0.2420785209         -0.3349
H673       H    0.4588861423    1.0170879321    0.2371896107          0.6283
H674       H    0.5137247339    1.0479841109    0.2547484246          0.6015
C675       C    0.5000000000    1.0000000000    0.1330796070         -0.3592
H676       H    0.5281724113    1.0020555780    0.1310510995          -0.361
H677       H    0.4561490038    0.9991875490    0.1661888886         -0.3578
C620       C    0.8669203930    0.5000000000    0.5000000000         -0.3525
C621       C    0.8485652235    0.4888539767    0.5274268846         -0.3434
C622       C    0.8146636023    0.4826515164    0.5249790171         -0.3499
C623       C    0.7978868327    0.4865792439    0.4950256452         -0.3662
C624       C    0.8156723855    0.4972613629    0.4668695439          0.6239
C625       C    0.8499661452    0.5045037433    0.4695987212          0.6313
C626       C    0.7591879420    0.4778560998    0.4943301715          0.6266
H627       H    0.8007201521    0.4737512456    0.5479046099          -0.342
H628       H    0.8608190363    0.4847511973    0.5525630497         -0.3303
C629       C    0.8600396612    0.5522157808    0.4311886849         -0.3611
C630       C    0.7978493417    0.4991899970    0.4314038218          0.6029
H631       H    0.8825075874    0.5683796858    0.4375673924         -0.3461
H632       H    0.8371952283    0.5619975402    0.4450243978         -0.3469
H633       H    0.8551667745    0.5533368026    0.4032231072          0.6223
O634       O    0.8672218686    0.5163874924    0.4407647538          0.6218
H635       H    0.7771135266    0.4800636109    0.4287509489          0.5882
H636       H    0.7868379610    0.5249808254    0.4271550697          0.6166
H637       H    0.8158395612    0.4937322843    0.4101757621          0.5868
C638       C    0.7347649178    0.5088155783    0.4857476686         -0.3593
N639       N    0.6978996113    0.5001650424    0.4924067838         -0.3619
N640       N    0.7019874259    0.4734073253    0.5017030562          0.6266
N641       N    0.7354960467    0.4637799928    0.5020143271          0.6215
C642       C    0.6644744646    0.5096741119    0.4880231875         -0.3594
H643       H    0.7420785209    0.5315948629    0.5011203165         -0.3349
H644       H    0.7371896107    0.5156301336    0.4583101254          0.6283
H645       H    0.7547484246    0.4555942964    0.4772189396          0.6015
C646       C    0.6330796070    0.5000000000    0.5000000000         -0.3592
H647       H    0.6310510995    0.4792426956    0.5191584047          -0.361
H648       H    0.6661888886    0.5305668319    0.4685478343         -0.3578
C591       C    1.1330796070    0.5000000000    0.5000000000         -0.3525
C592       C    1.1514347765    0.5274268846    0.4888539767         -0.3434
C593       C    1.1853363977    0.5249790171    0.4826515164         -0.3499
C594       C    1.2021131673    0.4950256452    0.4865792439         -0.3662
C595       C    1.1843276145    0.4668695439    0.4972613629          0.6239
C596       C    1.1500338548    0.4695987212    0.5045037433          0.6313
C597       C    1.2408120580    0.4943301715    0.4778560998          0.6266
H598       H    1.1992798479    0.5479046099    0.4737512456          -0.342
H599       H    1.1391809637    0.5525630497    0.4847511973         -0.3303
C600       C    1.1399603388    0.4311886849    0.5522157808         -0.3611
C601       C    1.2021506583    0.4314038218    0.4991899970          0.6029
H602       H    1.1174924126    0.4375673924    0.5683796858         -0.3461
H603       H    1.1628047717    0.4450243978    0.5619975402         -0.3469
H604       H    1.1448332255    0.4032231072    0.5533368026          0.6223
O605       O    1.1327781314    0.4407647538    0.5163874924          0.6218
H606       H    1.2228864734    0.4287509489    0.4800636109          0.5882
H607       H    1.2131620390    0.4271550697    0.5249808254          0.6166
H608       H    1.1841604388    0.4101757621    0.4937322843          0.5868
C609       C    1.2652350822    0.4857476686    0.5088155783         -0.3593
N610       N    1.3021003887    0.4924067838    0.5001650424         -0.3619
N611       N    1.2980125741    0.5017030562    0.4734073253          0.6266
N612       N    1.2645039533    0.5020143271    0.4637799928          0.6215
C613       C    1.3355255354    0.4880231875    0.5096741119         -0.3594
H614       H    1.2579214791    0.5011203165    0.5315948629         -0.3349
H615       H    1.2628103893    0.4583101254    0.5156301336          0.6283
H616       H    1.2452515754    0.4772189396    0.4555942964          0.6015
C617       C    1.3669203930    0.5000000000    0.5000000000         -0.3592
H618       H    1.3689489005    0.5191584047    0.4792426956          -0.361
H619       H    1.3338111114    0.4685478343    0.5305668319         -0.3578
C562       C    0.6330796070    0.5000000000    0.0000000000         -0.3525
C563       C    0.6514347765    0.4806234775    0.0223834361         -0.3434
C564       C    0.6853363977    0.4856205635    0.0267983766         -0.3499
C565       C    0.7021131673    0.5105254345    0.0096992849         -0.3662
C566       C    0.6843276145    0.5307623050   -0.0126018984          0.6239
C567       C    0.6500338548    0.5250424269   -0.0178156760          0.6313
C568       C    0.7408120580    0.5151056044    0.0171557566          0.6266
H569       H    0.6992798479    0.4692350226    0.0451371790          -0.342
H570       H    0.6391809637    0.4600901665    0.0374513734         -0.3303
C571       C    0.6399603388    0.5376030068   -0.0777656655         -0.3611
C572       C    0.7021506583    0.5614862589   -0.0304225530          0.6029
H573       H    0.6174924126    0.5245808549   -0.0892714596         -0.3461
H574       H    0.6628047717    0.5208343811   -0.0801993790         -0.3469
H575       H    0.6448332255    0.5620110827   -0.0914615061          0.6223
O576       O    0.6327781314    0.5453377013   -0.0414952665          0.6218
H577       H    0.7228864734    0.5725337651   -0.0145856030          0.5882
H578       H    0.7131620390    0.5535622190   -0.0553309516          0.6166
H579       H    0.6841604388    0.5828781729   -0.0351978184          0.5868
C580       C    0.7652350822    0.5086962055   -0.0143254802         -0.3593
N581       N    0.8021003887    0.5066905455   -0.0035945476         -0.3619
N582       N    0.7980125741    0.5105562859    0.0244670304          0.6266
N583       N    0.7645039533    0.5146499792    0.0331862102          0.6215
C584       C    0.8355255354    0.5062789470   -0.0140572865         -0.3594
H585       H    0.7579214791    0.4846570081   -0.0276420526         -0.3349
H586       H    0.7628103893    0.5300488117   -0.0328544614          0.6283
H587       H    0.7452515754    0.5404589140    0.0292219010          0.6015
C588       C    0.8669203930    0.5000000000    0.0000000000         -0.3592
H589       H    0.8689489005    0.4923543539    0.0271929082          -0.361
H590       H    0.8338111114    0.5141455091   -0.0415147506         -0.3578
C533       C    1.1330796070    0.5000000000    0.0000000000         -0.3525
C534       C    1.1514347765    0.4986627009    0.0295749804         -0.3434
C535       C    1.1853363977    0.5053205356    0.0299434982         -0.3499
C536       C    1.2021131673    0.5142713840    0.0010901821         -0.3662
C537       C    1.1843276145    0.5163349035   -0.0289533794          0.6239
C538       C    1.1500338548    0.5086147594   -0.0295009725          0.6313
C539       C    1.2408120580    0.5224867661    0.0041042201          0.6266
H540       H    1.1992798479    0.5038243629    0.0544905773          -0.342
H541       H    1.1391809637    0.4918842422    0.0541251758         -0.3303
C542       C    1.1399603388    0.4813233907   -0.0843366416         -0.3611
C543       C    1.2021506583    0.5294057637   -0.0619789709          0.6029
H544       H    1.1174924126    0.4639729886   -0.0852975168         -0.3461
H545       H    1.1628047717    0.4666543018   -0.0758556276         -0.3469
H546       H    1.1448332255    0.4919932424   -0.1102110399          0.6223
O547       O    1.1327781314    0.5098699503   -0.0606625781          0.6218
H548       H    1.2228864734    0.5478902690   -0.0563951152          0.5882
H549       H    1.2131620390    0.5077513651   -0.0766181561          0.6166
H550       H    1.1841604388    0.5432362346   -0.0789829474          0.5868
C551       C    1.2652350822    0.4979481075   -0.0166322911         -0.3593
N552       N    1.3021003887    0.5030236629   -0.0069671826         -0.3619
N553       N    1.2980125741    0.5234468296    0.0126616322          0.6266
N554       N    1.2645039533    0.5320628682    0.0169681738          0.6215
C555       C    1.3355255354    0.4962170988   -0.0149238781         -0.3594
H556       H    1.2579214791    0.4708288027   -0.0121873591         -0.3349
H557       H    1.2628103893    0.5032248666   -0.0444066094          0.6283
H558       H    1.2452515754    0.5498625995   -0.0021364442          0.6015
C559       C    1.3669203930    0.5000000000    0.0000000000         -0.3592
H560       H    1.3689489005    0.5108500801    0.0260803742          -0.361
H561       H    1.3338111114    0.4853764670   -0.0413487875         -0.3578
C504       C    1.0000000000    0.5000000000   -0.1330796070         -0.3525
C505       C    1.0276380265    0.4893883401   -0.1514347765         -0.3434
C506       C    1.0300909068    0.4955888197   -0.1853363977         -0.3499
C507       C    1.0055427366    0.5131961726   -0.2021131673         -0.3662
C508       C    0.9776895399    0.5246448904   -0.1843276145          0.6239
C509       C    0.9747311673    0.5174930715   -0.1500338548          0.6313
C510       C    1.0109976982    0.5200387102   -0.2408120580          0.6266
H511       H    1.0529083155    0.4864147539   -0.1992798479          -0.342
H512       H    1.0487896989    0.4752015030   -0.1391809637         -0.3303
C513       C    0.9140821206    0.5089220425   -0.1399603388         -0.3611
C514       C    0.9504842777    0.5474793114   -0.2021506583          0.6029
H515       H    0.9076893964    0.4927636757   -0.1174924126         -0.3461
H516       H    0.9174948152    0.4923249559   -0.1628047717         -0.3469
H517       H    0.8929033609    0.5272193199   -0.1448332255          0.6223
O518       O    0.9455618263    0.5285280484   -0.1327781314          0.6218
H519       H    0.9616215127    0.5632532892   -0.2228864734          0.5882
H520       H    0.9297540440    0.5315583774   -0.2131620390          0.6166
H521       H    0.9387201479    0.5659731589   -0.1841604388          0.5868
C522       C    0.9835712267    0.5033073825   -0.2652350822         -0.3593
N523       N    0.9943447837    0.5050697830   -0.3021003887         -0.3619
N524       N    1.0194201838    0.5182462930   -0.2980125741          0.6266
N525       N    1.0262280304    0.5250606635   -0.2645039533          0.6215
C526       C    0.9846453223    0.5011253227   -0.3355255354         -0.3594
H527       H    0.9792214542    0.4761726522   -0.2579214791         -0.3349
H528       H    0.9588861423    0.5170879321   -0.2628103893          0.6283
H529       H    1.0137247339    0.5479841109   -0.2452515754          0.6015
C530       C    1.0000000000    0.5000000000   -0.3669203930         -0.3592
H531       H    1.0281724113    0.5020555780   -0.3689489005          -0.361
H532       H    0.9561490038    0.4991875490   -0.3338111114         -0.3578
C475       C    1.0000000000    0.5000000000    0.3669203930         -0.3525
C476       C    0.9723619735    0.5106116599    0.3485652235         -0.3434
C477       C    0.9699090932    0.5044111803    0.3146636023         -0.3499
C478       C    0.9944572634    0.4868038274    0.2978868327         -0.3662
C479       C    1.0223104601    0.4753551096    0.3156723855          0.6239
C480       C    1.0252688327    0.4825069285    0.3499661452          0.6313
C481       C    0.9890023018    0.4799612898    0.2591879420          0.6266
H482       H    0.9470916845    0.5135852461    0.3007201521          -0.342
H483       H    0.9512103011    0.5247984970    0.3608190363         -0.3303
C484       C    1.0859178794    0.4910779575    0.3600396612         -0.3611
C485       C    1.0495157223    0.4525206886    0.2978493417          0.6029
H486       H    1.0923106036    0.5072363243    0.3825075874         -0.3461
H487       H    1.0825051848    0.5076750441    0.3371952283         -0.3469
H488       H    1.1070966391    0.4727806801    0.3551667745          0.6223
O489       O    1.0544381737    0.4714719516    0.3672218686          0.6218
H490       H    1.0383784873    0.4367467108    0.2771135266          0.5882
H491       H    1.0702459560    0.4684416226    0.2868379610          0.6166
H492       H    1.0612798521    0.4340268411    0.3158395612          0.5868
C493       C    1.0164287733    0.4966926175    0.2347649178         -0.3593
N494       N    1.0056552163    0.4949302170    0.1978996113         -0.3619
N495       N    0.9805798162    0.4817537070    0.2019874259          0.6266
N496       N    0.9737719696    0.4749393365    0.2354960467          0.6215
C497       C    1.0153546777    0.4988746773    0.1644744646         -0.3594
H498       H    1.0207785458    0.5238273478    0.2420785209         -0.3349
H499       H    1.0411138577    0.4829120679    0.2371896107          0.6283
H500       H    0.9862752661    0.4520158891    0.2547484246          0.6015
C501       C    1.0000000000    0.5000000000    0.1330796070         -0.3592
H502       H    0.9718275887    0.4979444220    0.1310510995          -0.361
H503       H    1.0438509962    0.5008124510    0.1661888886         -0.3578
C446       C    1.0000000000   -0.3669203930    0.5000000000         -0.3525
C447       C    1.0106116599   -0.3485652235    0.5276380265         -0.3434
C448       C    1.0044111803   -0.3146636023    0.5300909068         -0.3499
C449       C    0.9868038274   -0.2978868327    0.5055427366         -0.3662
C450       C    0.9753551096   -0.3156723855    0.4776895399          0.6239
C451       C    0.9825069285   -0.3499661452    0.4747311673          0.6313
C452       C    0.9799612898   -0.2591879420    0.5109976982          0.6266
H453       H    1.0135852461   -0.3007201521    0.5529083155          -0.342
H454       H    1.0247984970   -0.3608190363    0.5487896989         -0.3303
C455       C    0.9910779575   -0.3600396612    0.4140821206         -0.3611
C456       C    0.9525206886   -0.2978493417    0.4504842777          0.6029
H457       H    1.0072363243   -0.3825075874    0.4076893964         -0.3461
H458       H    1.0076750441   -0.3371952283    0.4174948152         -0.3469
H459       H    0.9727806801   -0.3551667745    0.3929033609          0.6223
O460       O    0.9714719516   -0.3672218686    0.4455618263          0.6218
H461       H    0.9367467108   -0.2771135266    0.4616215127          0.5882
H462       H    0.9684416226   -0.2868379610    0.4297540440          0.6166
H463       H    0.9340268411   -0.3158395612    0.4387201479          0.5868
C464       C    0.9966926175   -0.2347649178    0.4835712267         -0.3593
N465       N    0.9949302170   -0.1978996113    0.4943447837         -0.3619
N466       N    0.9817537070   -0.2019874259    0.5194201838          0.6266
N467       N    0.9749393365   -0.2354960467    0.5262280304          0.6215
C468       C    0.9988746773   -0.1644744646    0.4846453223         -0.3594
H469       H    1.0238273478   -0.2420785209    0.4792214542         -0.3349
H470       H    0.9829120679   -0.2371896107    0.4588861423          0.6283
H471       H    0.9520158891   -0.2547484246    0.5137247339          0.6015
C472       C    1.0000000000   -0.1330796070    0.5000000000         -0.3592
H473       H    0.9979444220   -0.1310510995    0.5281724113          -0.361
H474       H    1.0008124510   -0.1661888886    0.4561490038         -0.3578
C417       C    1.0000000000    0.1330796070    0.5000000000         -0.3525
C418       C    1.0117429643    0.1514347765    0.5271766559         -0.3434
C419       C    1.0056489702    0.1853363977    0.5298832782         -0.3499
C420       C    0.9870437571    0.2021131673    0.5060824887         -0.3662
C421       C    0.9744555698    0.1843276145    0.4787253828          0.6239
C422       C    0.9814792365    0.1500338548    0.4754744465          0.6313
C423       C    0.9804321172    0.2408120580    0.5118151272          0.6266
H424       H    1.0157566666    0.1992798479    0.5523027363          -0.342
H425       H    1.0267904354    0.1391809637    0.5477249699         -0.3303
C426       C    0.9875405965    0.1399603388    0.4145234060         -0.3611
C427       C    0.9505181085    0.2021506583    0.4524854319          0.6029
H428       H    1.0034214408    0.1174924126    0.4074694339         -0.3461
H429       H    1.0042643571    0.1628047717    0.4172484013         -0.3469
H430       H    0.9683850677    0.1448332255    0.3941176240          0.6223
O431       O    0.9692501339    0.1327781314    0.4467852460          0.6218
H432       H    0.9352170836    0.2228864734    0.4642640149          0.5882
H433       H    0.9655701587    0.2131620390    0.4311159558          0.6166
H434       H    0.9315546232    0.1841604388    0.4414943732          0.5868
C435       C    0.9960175852    0.2652350822    0.4837216787         -0.3593
N436       N    0.9947012008    0.3021003887    0.4945587779         -0.3619
N437       N    0.9825705184    0.2980125741    0.5201564858          0.6266
N438       N    0.9760428414    0.2645039533    0.5272396951          0.6215
C439       C    0.9982421039    0.3355255354    0.4847048282         -0.3594
H440       H    1.0229497380    0.2579214791    0.4782560354         -0.3349
H441       H    0.9812302676    0.2628103893    0.4596261983          0.6283
H442       H    0.9526230304    0.2452515754    0.5156928637          0.6015
C443       C    1.0000000000    0.3669203930    0.5000000000         -0.3592
H444       H    0.9991085618    0.3689489005    0.5282332339          -0.361
H445       H    0.9990024737    0.3338111114    0.4561528235         -0.3578
C388       C    0.6330796070   -0.0000000000    0.5000000000         -0.3525
C389       C    0.6514347765    0.0291721221    0.5050453074         -0.3434
C390       C    0.6853363977    0.0303748406    0.4984866462         -0.3499
C391       C    0.7021131673    0.0028759481    0.4859789507         -0.3662
C392       C    0.6843276145   -0.0266697249    0.4801542693          0.6239
C393       C    0.6500338548   -0.0281836673    0.4877442930          0.6313
C394       C    0.7408120580    0.0068990303    0.4782077387          0.6266
H395       H    0.6992798479    0.0545389877    0.5030573812          -0.342
H396       H    0.6391809637    0.0526751906    0.5148567990         -0.3303
C397       C    0.6399603388   -0.0860156410    0.5079242888         -0.3611
C398       C    0.7021506583   -0.0577897496    0.4630346566          0.6029
H399       H    0.6174924126   -0.0891504498    0.5250161790         -0.3461
H400       H    0.6628047717   -0.0794463573    0.5235433246         -0.3469
H401       H    0.6448332255   -0.1103431175    0.4940857878          0.6223
O402       O    0.6327781314   -0.0589401468    0.4825809474          0.6218
H403       H    0.7228864734   -0.0499260522    0.4453989359          0.5882
H404       H    0.7131620390   -0.0750354795    0.4826765385          0.6166
H405       H    0.6841604388   -0.0729198000    0.4471759454          0.5868
C406       C    0.7652350822   -0.0167582897    0.4999443409         -0.3593
N407       N    0.8021003887   -0.0065317084    0.4961243121         -0.3619
N408       N    0.7980125741    0.0155092431    0.4783312638          0.6266
N409       N    0.7645039533    0.0208649481    0.4703250884          0.6215
C410       C    0.8355255354   -0.0152810840    0.5018764200         -0.3594
H411       H    0.7579214791   -0.0157584894    0.5274073071         -0.3349
H412       H    0.7628103893   -0.0436487105    0.4912172448          0.6283
H413       H    0.7452515754    0.0041500038    0.4502644926          0.6015
C414       C    0.8669203930   -0.0000000000    0.5000000000         -0.3592
H415       H    0.8689489005    0.0272376345    0.4925152539          -0.361
H416       H    0.8338111114   -0.0428593313    0.5093084726         -0.3578
C359       C    1.1330796070   -0.0000000000    0.5000000000         -0.3525
C360       C    1.1514347765    0.0229025029    0.5187601491         -0.3434
C361       C    1.1853363977    0.0271798055    0.5136447556         -0.3499
C362       C    1.2021131673    0.0094092280    0.4892144852         -0.3662
C363       C    1.1843276145   -0.0134344682    0.4695920682          0.6239
C364       C    1.1500338548   -0.0184906402    0.4754517275          0.6313
C365       C    1.2408120580    0.0167382820    0.4844330739          0.6266
H366       H    1.1992798479    0.0459577694    0.5295251113          -0.342
H367       H    1.1391809637    0.0385237006    0.5388757594         -0.3303
C368       C    1.1399603388   -0.0787602755    0.4645274211         -0.3611
C369       C    1.2021506583   -0.0320847157    0.4393645088          0.6029
H370       H    1.1174924126   -0.0899073918    0.4778578949         -0.3461
H371       H    1.1628047717   -0.0807367065    0.4813560719         -0.3469
H372       H    1.1448332255   -0.0931153417    0.4405011376          0.6223
O373       O    1.1327781314   -0.0427138225    0.4558084435          0.6218
H374       H    1.2228864734   -0.0165543051    0.4278900709          0.5882
H375       H    1.2131620390   -0.0567682238    0.4479635294          0.6166
H376       H    1.1841604388   -0.0374404222    0.4181104844          0.5868
C377       C    1.2652350822   -0.0145568526    0.4916969033         -0.3593
N378       N    1.3021003887   -0.0037753083    0.4934097634         -0.3619
N379       N    1.2980125741    0.0241706633    0.4887817209          0.6266
N380       N    1.2645039533    0.0327751978    0.4844522398          0.6215
C381       C    1.3355255354   -0.0142229693    0.4941059671         -0.3594
H382       H    1.2579214791   -0.0272142326    0.5160896244         -0.3349
H383       H    1.2628103893   -0.0336601103    0.4708564982          0.6283
H384       H    1.2452515754    0.0281099318    0.4587607595          0.6015
C385       C    1.3669203930   -0.0000000000    0.5000000000         -0.3592
H386       H    1.3689489005    0.0273909216    0.5069027219          -0.361
H387       H    1.3338111114   -0.0418843614    0.4869896113         -0.3578
C330       C   -0.0000000000   -0.3669203930    0.0000000000         -0.3525
C331       C   -0.0224019617   -0.3485652235   -0.0193551013         -0.3434
C332       C   -0.0180938052   -0.3146636023   -0.0244445371         -0.3499
C333       C    0.0090166423   -0.2978868327   -0.0111158023         -0.3662
C334       C    0.0322580965   -0.3156723855    0.0080338324          0.6239
C335       C    0.0273499065   -0.3499661452    0.0140179910          0.6313
C336       C    0.0124736116   -0.2591879420   -0.0191548502          0.6266
H337       H   -0.0369527612   -0.3007201521   -0.0402286242          -0.342
H338       H   -0.0448936272   -0.3608190363   -0.0313043513         -0.3303
C339       C    0.0484247718   -0.3600396612    0.0715298981         -0.3611
C340       C    0.0652308568   -0.2978493417    0.0212373983          0.6029
H341       H    0.0371980339   -0.3825075874    0.0847933853         -0.3461
H342       H    0.0321824087   -0.3371952283    0.0763564299         -0.3469
H343       H    0.0745528234   -0.3551667745    0.0815626018          0.6223
O344       O    0.0508479387   -0.3672218686    0.0345232014          0.6218
H345       H    0.0738789804   -0.2771135266    0.0039728005          0.5882
H346       H    0.0609817723   -0.2868379610    0.0470281720          0.6166
H347       H    0.0870878099   -0.3158395612    0.0228777475          0.5868
C348       C    0.0106712255   -0.2347649178    0.0129216221         -0.3593
N349       N    0.0071389883   -0.1978996113    0.0025921068         -0.3619
N350       N    0.0069174659   -0.2019874259   -0.0257336242          0.6266
N351       N    0.0097109446   -0.2354960467   -0.0349520242          0.6215
C352       C    0.0082405586   -0.1644744646    0.0130048327         -0.3594
H353       H   -0.0111962542   -0.2420785209    0.0295657634         -0.3349
H354       H    0.0344727506   -0.2371896107    0.0281775831          0.6283
H355       H    0.0358217950   -0.2547484246   -0.0347511471          0.6015
C356       C   -0.0000000000   -0.1330796070    0.0000000000         -0.3592
H357       H   -0.0114873023   -0.1310510995   -0.0258060466          -0.361
H358       H    0.0199846201   -0.1661888886    0.0390408108         -0.3578
C301       C    0.0000000000    0.3669203930    0.0000000000         -0.3525
C302       C   -0.0285933554    0.3485652235   -0.0076738427         -0.3434
C303       C   -0.0303867552    0.3146636023   -0.0012515156         -0.3499
C304       C   -0.0041374419    0.2978868327    0.0137019150         -0.3662
C305       C    0.0247571386    0.3156723855    0.0221858365          0.6239
C306       C    0.0269541435    0.3499661452    0.0147646741          0.6313
C307       C   -0.0088496727    0.2591879420    0.0210756391          0.6266
H308       H   -0.0540359317    0.3007201521   -0.0079979275          -0.342
H309       H   -0.0511082245    0.3608190363   -0.0195793147         -0.3303
C310       C    0.0863798501    0.3600396612   -0.0000796788         -0.3611
C311       C    0.0541937692    0.2978493417    0.0420609931          0.6029
H312       H    0.0910539739    0.3825075874   -0.0168162347         -0.3461
H313       H    0.0812562212    0.3371952283   -0.0162307839         -0.3469
H314       H    0.1093499910    0.3551667745    0.0159110326          0.6223
O315       O    0.0571145887    0.3672218686    0.0226999572          0.6218
H316       H    0.0447609093    0.2771135266    0.0589096587          0.5882
H317       H    0.0731520875    0.2868379610    0.0240665246          0.6166
H318       H    0.0678210196    0.3158395612    0.0592282641          0.5868
C319       C    0.0166839796    0.2347649178    0.0015774016         -0.3593
N320       N    0.0061527290    0.1978996113    0.0044528751         -0.3619
N321       N   -0.0174130846    0.2019874259    0.0201706528          0.6266
N322       N   -0.0234737702    0.2354960467    0.0276573417          0.6215
C323       C    0.0153883482    0.1644744646   -0.0004808513         -0.3594
H324       H    0.0181824727    0.2420785209   -0.0258628722         -0.3349
H325       H    0.0426706864    0.2371896107    0.0127105958          0.6283
H326       H   -0.0086497870    0.2547484246    0.0491530712          0.6015
C327       C    0.0000000000    0.1330796070    0.0000000000         -0.3592
H328       H   -0.0278048303    0.1310510995    0.0049801176          -0.361
H329       H    0.0435275982    0.1661888886   -0.0053775590         -0.3578
C272       C   -0.1330796070   -0.0000000000    0.0000000000         -0.3525
C273       C   -0.1514347765   -0.0292419872   -0.0046232041         -0.3434
C274       C   -0.1853363977   -0.0282673219   -0.0112196119         -0.3499
C275       C   -0.2021131673    0.0017950986   -0.0141999479         -0.3662
C276       C   -0.1843276145    0.0316418343   -0.0101941930          0.6239
C277       C   -0.1500338548    0.0306294837   -0.0025211475          0.6313
C278       C   -0.2408120580    0.0004905033   -0.0228529796          0.6266
H279       H   -0.1992798479   -0.0526155020   -0.0146784778          -0.342
H280       H   -0.1391809637   -0.0546529493   -0.0029078021         -0.3303
C281       C   -0.1399603388    0.0788751249    0.0352164666         -0.3611
C282       C   -0.2021506583    0.0666182592   -0.0163737386          0.6029
H283       H   -0.1174924126    0.0763356374    0.0524068925         -0.3461
H284       H   -0.1628047717    0.0676236324    0.0478858661         -0.3469
H285       H   -0.1448332255    0.1063640568    0.0299544473          0.6223
O286       O   -0.1327781314    0.0614093664    0.0025008034          0.6218
H287       H   -0.2228864734    0.0648562779   -0.0356026700          0.5882
H288       H   -0.2131620390    0.0766155264    0.0077773147          0.6166
H289       H   -0.1841604388    0.0860511931   -0.0265116981          0.5868
C290       C   -0.2652350822    0.0158824949    0.0053469364         -0.3593
N291       N   -0.3021003887    0.0074321401   -0.0015644376         -0.3619
N292       N   -0.2980125741   -0.0077003228   -0.0255103073          0.6266
N293       N   -0.2645039533   -0.0101907648   -0.0348151512          0.6215
C294       C   -0.3355255354    0.0138615412    0.0067000115         -0.3594
H295       H   -0.2579214791    0.0060872728    0.0310231459         -0.3349
H296       H   -0.2628103893    0.0441507608    0.0057495248          0.6283
H297       H   -0.2452515754    0.0120964136   -0.0484202437          0.6015
C298       C   -0.3669203930   -0.0000000000    0.0000000000         -0.3592
H299       H   -0.3689489005   -0.0233734043   -0.0158617190          -0.361
H300       H   -0.3338111114    0.0375743715    0.0226215948         -0.3578
C243       C    0.3669203930   -0.0000000000    0.0000000000         -0.3525
C244       C    0.3485652235   -0.0043335777    0.0292863097         -0.3434
C245       C    0.3146636023   -0.0109393085    0.0283769750         -0.3499
C246       C    0.2978868327   -0.0142170181   -0.0016544777         -0.3662
C247       C    0.3156723855   -0.0105068444   -0.0315393956          0.6239
C248       C    0.3499661452   -0.0028241556   -0.0306030325          0.6313
C249       C    0.2591879420   -0.0228567148   -0.0002643096          0.6266
H250       H    0.3007201521   -0.0141570378    0.0527581941          -0.342
H251       H    0.3608190363   -0.0023667744    0.0546790504         -0.3303
C252       C    0.3600396612    0.0344341365   -0.0792197898         -0.3611
C253       C    0.2978493417   -0.0170322393   -0.0664529502          0.6029
H254       H    0.3825075874    0.0516488530   -0.0768505556         -0.3461
H255       H    0.3371952283    0.0472142684   -0.0680942339         -0.3469
H256       H    0.3551667745    0.0289003244   -0.1066552987          0.6223
O257       O    0.3672218686    0.0018929292   -0.0614311087          0.6218
H258       H    0.2771135266   -0.0362427912   -0.0645007518          0.5882
H259       H    0.2868379610    0.0070186910   -0.0766887442          0.6166
H260       H    0.3158395612   -0.0273620248   -0.0857845998          0.5868
C261       C    0.2347649178    0.0051894898   -0.0159346342         -0.3593
N262       N    0.1978996113   -0.0016379148   -0.0074162933         -0.3619
N263       N    0.2019874259   -0.0254328500    0.0079524142          0.6266
N264       N    0.2354960467   -0.0347125909    0.0105348217          0.6215
C265       C    0.1644744646    0.0065624995   -0.0139271705         -0.3594
H266       H    0.2420785209    0.0309613825   -0.0063940023         -0.3349
H267       H    0.2371896107    0.0053122953   -0.0442055001          0.6283
H268       H    0.2547484246   -0.0485375873   -0.0116166194          0.6015
C269       C    0.1330796070   -0.0000000000    0.0000000000         -0.3592
H270       H    0.1310510995   -0.0156296220    0.0235292387          -0.361
H271       H    0.1661888886    0.0222486237   -0.0377964111         -0.3578
C214       C    0.0000000000    0.0000000000   -0.3669203930         -0.3525
C215       C   -0.0246983815    0.0163235347   -0.3485652235         -0.3434
C216       C   -0.0210782228    0.0219232686   -0.3146636023         -0.3499
C217       C    0.0075172319    0.0121799886   -0.2978868327         -0.3662
C218       C    0.0330218389   -0.0038321545   -0.3156723855          0.6239
C219       C    0.0289212984   -0.0103961510   -0.3499661452          0.6313
C220       C    0.0099150957    0.0205958770   -0.2591879420          0.6266
H221       H   -0.0418050398    0.0351594568   -0.3007201521          -0.342
H222       H   -0.0485363194    0.0252908260   -0.3608190363         -0.3303
C223       C    0.0571951188   -0.0647317792   -0.3600396612         -0.3611
C224       C    0.0674151887   -0.0126997678   -0.2978493417          0.6029
H225       H    0.0477613539   -0.0793250590   -0.3825075874         -0.3461
H226       H    0.0417055223   -0.0716007069   -0.3371952283         -0.3469
H227       H    0.0843937426   -0.0713321645   -0.3551667745          0.6223
O228       O    0.0548541469   -0.0277197920   -0.3672218686          0.6218
H229       H    0.0737786860    0.0055310380   -0.2771135266          0.5882
H230       H    0.0665074622   -0.0388224545   -0.2868379610          0.6166
H231       H    0.0893020820   -0.0115245880   -0.3158395612          0.5868
C232       C    0.0122396866   -0.0114469840   -0.2347649178         -0.3593
N233       N    0.0074123827   -0.0016555223   -0.1978996113         -0.3619
N234       N    0.0035614167    0.0264080870   -0.2019874259          0.6266
N235       N    0.0051500751    0.0359085389   -0.2354960467          0.6215
C236       C    0.0098397430   -0.0118411121   -0.1644744646         -0.3594
H237       H   -0.0073136311   -0.0307571337   -0.2420785209         -0.3349
H238       H    0.0378005861   -0.0235257818   -0.2371896107          0.6283
H239       H    0.0310712298    0.0390566499   -0.2547484246          0.6015
C240       C   -0.0000000000    0.0000000000   -0.1330796070         -0.3592
H241       H   -0.0147007733    0.0241204773   -0.1310510995          -0.361
H242       H    0.0248246334   -0.0361567078   -0.1661888886         -0.3578
C185       C   -0.0000000000    0.0000000000    0.3669203930         -0.3525
C186       C   -0.0223943727   -0.0193638815    0.3485652235         -0.3434
C187       C   -0.0180842215   -0.0244516281    0.3146636023         -0.3499
C188       C    0.0090209990   -0.0111122669    0.2978868327         -0.3662
C189       C    0.0322549447    0.0080464771    0.3156723855          0.6239
C190       C    0.0273444093    0.0140287112    0.3499661452          0.6313
C191       C    0.0124811194   -0.0191499590    0.2591879420          0.6266
H192       H   -0.0369369886   -0.0402431067    0.3007201521          -0.342
H193       H   -0.0448813524   -0.0313219474    0.3608190363         -0.3303
C194       C    0.0483967281    0.0715488753    0.3600396612         -0.3611
C195       C    0.0652225267    0.0212629674    0.2978493417          0.6029
H196       H    0.0371647917    0.0848079606    0.3825075874         -0.3461
H197       H    0.0321524743    0.0763690397    0.3371952283         -0.3469
H198       H    0.0745208449    0.0815918205    0.3551667745          0.6223
O199       O    0.0508344016    0.0345431313    0.3672218686          0.6218
H200       H    0.0738774174    0.0040017610    0.2771135266          0.5882
H201       H    0.0609633324    0.0470520735    0.2868379610          0.6166
H202       H    0.0870788351    0.0229118845    0.3158395612          0.5868
C203       C    0.0106661594    0.0129258042    0.2347649178         -0.3593
N204       N    0.0071379716    0.0025949051    0.1978996113         -0.3619
N205       N    0.0069275530   -0.0257309106    0.2019874259          0.6266
N206       N    0.0097246451   -0.0349482147    0.2354960467          0.6215
C207       C    0.0082354600    0.0130080620    0.1644744646         -0.3594
H208       H   -0.0112078432    0.0295613721    0.2420785209         -0.3349
H209       H    0.0344617022    0.0281910943    0.2371896107          0.6283
H210       H    0.0358354149   -0.0347371021    0.2547484246          0.6015
C211       C    0.0000000000   -0.0000000000    0.1330796070         -0.3592
H212       H   -0.0114771854   -0.0258105477    0.1310510995          -0.361
H213       H    0.0199693144    0.0390486418    0.1661888886         -0.3578
loop_
_geom_bond_atom_site_label_1
_geom_bond_atom_site_label_2
_geom_bond_distance
_geom_bond_site_symmetry_2
_ccdc_geom_bond_type
Zn1          O5 1.942       .   S
Zn1          O6 1.922       .   S
Zn1         O10 1.922       .   S
Zn1         O17 1.922       .   S
Zn2          O5 1.942       .   S
Zn2          O7 1.922       .   S
Zn2          O9 1.922       .   S
Zn2         O13 1.922       .   S
Zn3          O5 1.942       .   S
Zn3          O8 1.922       .   S
Zn3         O11 1.922       .   S
Zn3         O14 1.922       .   S
Zn4          O5 1.942       .   S
Zn4         O12 1.922       .   S
Zn4         O15 1.922       .   S
Zn4         O16 1.922       .   S
O6          C18 1.304       .   A
O7          C19 1.304       .   A
O8          C20 1.304       .   A
O9          C18 1.304       .   A
O10         C20 1.304       .   A
O11         C19 1.304       .   A
O12         C21 1.304       .   A
O13         C22 1.304       .   A
O14         C21 1.304       .   A
O15         C22 1.304       .   A
O16         C23 1.304       .   A
O17         C23 1.304       .   A
C18        C211 1.540       .   S
C19        C269 1.540       .   S
C20        C356 1.540       .   S
C21        C240 1.540       .   S
C22        C327 1.540       .   S
C23        C272 1.540       .   S
Zn24        O28 1.942       .   S
Zn24        O29 1.922       .   S
Zn24        O33 1.922       .   S
Zn24        O40 1.922       .   S
Zn25        O28 1.942       .   S
Zn25        O30 1.922       .   S
Zn25        O32 1.922       .   S
Zn25        O36 1.922       .   S
Zn26        O28 1.942       .   S
Zn26        O31 1.922       .   S
Zn26        O34 1.922       .   S
Zn26        O37 1.922       .   S
Zn27        O28 1.942       .   S
Zn27        O35 1.922       .   S
Zn27        O38 1.922       .   S
Zn27        O39 1.922       .   S
O29         C41 1.304       .   A
O30         C42 1.304       .   A
O31         C43 1.304       .   A
O32         C41 1.304       .   A
O33         C43 1.304       .   A
O34         C42 1.304       .   A
O35         C44 1.304       .   A
O36         C45 1.304       .   A
O37         C44 1.304       .   A
O38         C45 1.304       .   A
O39         C46 1.304       .   A
O40         C46 1.304       .   A
C41        C185 1.540   1_655   S
C42        C359 1.540       .   S
C43        C417 1.540       .   S
C44        C214 1.540   1_656   S
C45        C472 1.540       .   S
C46        C414 1.540       .   S
Zn47        O51 1.942       .   S
Zn47        O52 1.922       .   S
Zn47        O56 1.922       .   S
Zn47        O63 1.922       .   S
Zn48        O51 1.942       .   S
Zn48        O53 1.922       .   S
Zn48        O55 1.922       .   S
Zn48        O59 1.922       .   S
Zn49        O51 1.942       .   S
Zn49        O54 1.922       .   S
Zn49        O57 1.922       .   S
Zn49        O60 1.922       .   S
Zn50        O51 1.942       .   S
Zn50        O58 1.922       .   S
Zn50        O61 1.922       .   S
Zn50        O62 1.922       .   S
O52         C64 1.304       .   A
O53         C65 1.304       .   A
O54         C66 1.304       .   A
O55         C64 1.304       .   A
O56         C66 1.304       .   A
O57         C65 1.304       .   A
O58         C67 1.304       .   A
O59         C68 1.304       .   A
O60         C67 1.304       .   A
O61         C68 1.304       .   A
O62         C69 1.304       .   A
O63         C69 1.304       .   A
C64        C301 1.540   1_655   S
C65        C501 1.540       .   S
C66        C533 1.540       .   S
C67        C330 1.540   1_665   S
C68        C588 1.540       .   S
C69        C504 1.540       .   S
Zn70        O74 1.942       .   S
Zn70        O75 1.922       .   S
Zn70        O79 1.922       .   S
Zn70        O86 1.922       .   S
Zn71        O74 1.942       .   S
Zn71        O76 1.922       .   S
Zn71        O78 1.922       .   S
Zn71        O82 1.922       .   S
Zn72        O74 1.942       .   S
Zn72        O77 1.922       .   S
Zn72        O80 1.922       .   S
Zn72        O83 1.922       .   S
Zn73        O74 1.942       .   S
Zn73        O81 1.922       .   S
Zn73        O84 1.922       .   S
Zn73        O85 1.922       .   S
O75         C87 1.304       .   A
O76         C88 1.304       .   A
O77         C89 1.304       .   A
O78         C87 1.304       .   A
O79         C89 1.304       .   A
O80         C88 1.304       .   A
O81         C90 1.304       .   A
O82         C91 1.304       .   A
O83         C90 1.304       .   A
O84         C91 1.304       .   A
O85         C92 1.304       .   A
O86         C92 1.304       .   A
C87        C443 1.540       .   S
C88        C475 1.540       .   S
C89        C620 1.540       .   S
C90        C446 1.540   1_565   S
C91        C591 1.540       .   S
C92        C530 1.540   1_556   S
Zn93        O97 1.942       .   S
Zn93        O98 1.922       .   S
Zn93       O102 1.922       .   S
Zn93       O109 1.922       .   S
Zn94        O97 1.942       .   S
Zn94        O99 1.922       .   S
Zn94       O101 1.922       .   S
Zn94       O105 1.922       .   S
Zn95        O97 1.942       .   S
Zn95       O100 1.922       .   S
Zn95       O103 1.922       .   S
Zn95       O106 1.922       .   S
Zn96        O97 1.942       .   S
Zn96       O104 1.922       .   S
Zn96       O107 1.922       .   S
Zn96       O108 1.922       .   S
O98        C110 1.304       .   A
O99        C111 1.304       .   A
O100       C112 1.304       .   A
O101       C110 1.304       .   A
O102       C112 1.304       .   A
O103       C111 1.304       .   A
O104       C113 1.304       .   A
O105       C114 1.304       .   A
O106       C113 1.304       .   A
O107       C114 1.304       .   A
O108       C115 1.304       .   A
O109       C115 1.304       .   A
C110       C243 1.540   1_565   S
C111       C675 1.540       .   S
C112       C762 1.540       .   S
C113       C298 1.540   1_665   S
C114       C707 1.540       .   S
C115       C704 1.540       .   S
Zn116      O120 1.942       .   S
Zn116      O121 1.922       .   S
Zn116      O125 1.922       .   S
Zn116      O132 1.922       .   S
Zn117      O120 1.942       .   S
Zn117      O122 1.922       .   S
Zn117      O124 1.922       .   S
Zn117      O128 1.922       .   S
Zn118      O120 1.942       .   S
Zn118      O123 1.922       .   S
Zn118      O126 1.922       .   S
Zn118      O129 1.922       .   S
Zn119      O120 1.942       .   S
Zn119      O127 1.922       .   S
Zn119      O130 1.922       .   S
Zn119      O131 1.922       .   S
O121       C133 1.304       .   A
O122       C134 1.304       .   A
O123       C135 1.304       .   A
O124       C133 1.304       .   A
O125       C135 1.304       .   A
O126       C134 1.304       .   A
O127       C136 1.304       .   A
O128       C137 1.304       .   A
O129       C136 1.304       .   A
O130       C137 1.304       .   A
O131       C138 1.304       .   A
O132       C138 1.304       .   A
C133       C385 1.540   1_465   S
C134       C649 1.540       .   S
C135       C765 1.540       .   S
C136       C388 1.540   1_565   S
C137       C794 1.540       .   S
C138       C678 1.540   1_556   S
Zn139      O143 1.942       .   S
Zn139      O144 1.922       .   S
Zn139      O148 1.922       .   S
Zn139      O155 1.922       .   S
Zn140      O143 1.942       .   S
Zn140      O145 1.922       .   S
Zn140      O147 1.922       .   S
Zn140      O151 1.922       .   S
Zn141      O143 1.942       .   S
Zn141      O146 1.922       .   S
Zn141      O149 1.922       .   S
Zn141      O152 1.922       .   S
Zn142      O143 1.942       .   S
Zn142      O150 1.922       .   S
Zn142      O153 1.922       .   S
Zn142      O154 1.922       .   S
O144       C156 1.304       .   A
O145       C157 1.304       .   A
O146       C158 1.304       .   A
O147       C156 1.304       .   A
O148       C158 1.304       .   A
O149       C157 1.304       .   A
O150       C159 1.304       .   A
O151       C160 1.304       .   A
O152       C159 1.304       .   A
O153       C160 1.304       .   A
O154       C161 1.304       .   A
O155       C161 1.304       .   A
C156       C559 1.540   1_455   S
C157       C733 1.540   1_545   S
C158       C878 1.540       .   S
C159       C562 1.540       .   S
C160       C849 1.540       .   S
C161       C736 1.540       .   S
Zn162      O166 1.942       .   S
Zn162      O167 1.922       .   S
Zn162      O171 1.922       .   S
Zn162      O178 1.922       .   S
Zn163      O166 1.942       .   S
Zn163      O168 1.922       .   S
Zn163      O170 1.922       .   S
Zn163      O174 1.922       .   S
Zn164      O166 1.942       .   S
Zn164      O169 1.922       .   S
Zn164      O172 1.922       .   S
Zn164      O175 1.922       .   S
Zn165      O166 1.942       .   S
Zn165      O173 1.922       .   S
Zn165      O176 1.922       .   S
Zn165      O177 1.922       .   S
O167       C179 1.304       .   A
O168       C180 1.304       .   A
O169       C181 1.304       .   A
O170       C179 1.304       .   A
O171       C181 1.304       .   A
O172       C180 1.304       .   A
O173       C182 1.304       .   A
O174       C183 1.304       .   A
O175       C182 1.304       .   A
O176       C183 1.304       .   A
O177       C184 1.304       .   A
O178       C184 1.304       .   A
C179       C791 1.540   1_545   S
C180       C617 1.540   1_455   S
C181       C852 1.540   1_556   S
C182       C820 1.540       .   S
C183       C823 1.540       .   S
C184       C646 1.540       .   S
C852       C853 0.031       .   A
C852       C857 0.031       .   A
C853       C854 0.031       .   A
C853       H860 0.025       .   A
C854       C855 0.031       .   A
C854       H859 0.025       .   A
C855       C856 0.031       .   A
C855       C858 0.035       .   A
C856       C857 0.031       .   A
C856       C862 0.035       .   A
C857       O866 0.032       .   A
C858       C870 0.036       .   A
C858       N873 0.026       .   A
C858       H877 0.025       .   A
C861       H863 0.025       .   A
C861       H864 0.025       .   A
C861       H865 0.025       .   A
C861       O866 0.034       .   A
C862       H867 0.025       .   A
C862       H868 0.025       .   A
C862       H869 0.025       .   A
C870       N871 0.034       .   A
C870       H875 0.025       .   A
C870       H876 0.025       .   A
N871       N872 0.026       .   A
N871       C874 0.031       .   A
N872       N873 0.031       .   A
C874       C878 0.031       .   A
C874       H880 0.026       .   A
C878       H879 0.025       .   A
C823       C824 0.031       .   A
C823       C828 0.031       .   A
C824       C825 0.031       .   A
C824       H831 0.025       .   A
C825       C826 0.031       .   A
C825       H830 0.025       .   A
C826       C827 0.031       .   A
C826       C829 0.035       .   A
C827       C828 0.031       .   A
C827       C833 0.035       .   A
C828       O837 0.032       .   A
C829       C841 0.036       .   A
C829       N844 0.026       .   A
C829       H848 0.025       .   A
C832       H834 0.025       .   A
C832       H835 0.025       .   A
C832       H836 0.025       .   A
C832       O837 0.034       .   A
C833       H838 0.025       .   A
C833       H839 0.025       .   A
C833       H840 0.025       .   A
C841       N842 0.034       .   A
C841       H846 0.025       .   A
C841       H847 0.025       .   A
N842       N843 0.026       .   A
N842       C845 0.031       .   A
N843       N844 0.031       .   A
C845       C849 0.031       .   A
C845       H851 0.026       .   A
C849       H850 0.025       .   A
C794       C795 0.031       .   A
C794       C799 0.031       .   A
C795       C796 0.031       .   A
C795       H802 0.025       .   A
C796       C797 0.031       .   A
C796       H801 0.025       .   A
C797       C798 0.031       .   A
C797       C800 0.035       .   A
C798       C799 0.031       .   A
C798       C804 0.035       .   A
C799       O808 0.032       .   A
C800       C812 0.036       .   A
C800       N815 0.026       .   A
C800       H819 0.025       .   A
C803       H805 0.025       .   A
C803       H806 0.025       .   A
C803       H807 0.025       .   A
C803       O808 0.034       .   A
C804       H809 0.025       .   A
C804       H810 0.025       .   A
C804       H811 0.025       .   A
C812       N813 0.034       .   A
C812       H817 0.025       .   A
C812       H818 0.025       .   A
N813       N814 0.026       .   A
N813       C816 0.031       .   A
N814       N815 0.031       .   A
C816       C820 0.031       .   A
C816       H822 0.026       .   A
C820       H821 0.025       .   A
C765       C766 0.031       .   A
C765       C770 0.031       .   A
C766       C767 0.031       .   A
C766       H773 0.025       .   A
C767       C768 0.031       .   A
C767       H772 0.025       .   A
C768       C769 0.031       .   A
C768       C771 0.035       .   A
C769       C770 0.031       .   A
C769       C775 0.035       .   A
C770       O779 0.032       .   A
C771       C783 0.036       .   A
C771       N786 0.026       .   A
C771       H790 0.025       .   A
C774       H776 0.025       .   A
C774       H777 0.025       .   A
C774       H778 0.025       .   A
C774       O779 0.034       .   A
C775       H780 0.025       .   A
C775       H781 0.025       .   A
C775       H782 0.025       .   A
C783       N784 0.034       .   A
C783       H788 0.025       .   A
C783       H789 0.025       .   A
N784       N785 0.026       .   A
N784       C787 0.031       .   A
N785       N786 0.031       .   A
C787       C791 0.031       .   A
C787       H793 0.026       .   A
C791       H792 0.025       .   A
C736       C737 0.031       .   A
C736       C741 0.031       .   A
C737       C738 0.031       .   A
C737       H744 0.025       .   A
C738       C739 0.031       .   A
C738       H743 0.025       .   A
C739       C740 0.031       .   A
C739       C742 0.035       .   A
C740       C741 0.031       .   A
C740       C746 0.035       .   A
C741       O750 0.032       .   A
C742       C754 0.036       .   A
C742       N757 0.026       .   A
C742       H761 0.025       .   A
C745       H747 0.025       .   A
C745       H748 0.025       .   A
C745       H749 0.025       .   A
C745       O750 0.034       .   A
C746       H751 0.025       .   A
C746       H752 0.025       .   A
C746       H753 0.025       .   A
C754       N755 0.034       .   A
C754       H759 0.025       .   A
C754       H760 0.025       .   A
N755       N756 0.026       .   A
N755       C758 0.031       .   A
N756       N757 0.031       .   A
C758       C762 0.031       .   A
C758       H764 0.026       .   A
C762       H763 0.025       .   A
C707       C708 0.031       .   A
C707       C712 0.031       .   A
C708       C709 0.031       .   A
C708       H715 0.025       .   A
C709       C710 0.031       .   A
C709       H714 0.025       .   A
C710       C711 0.031       .   A
C710       C713 0.035       .   A
C711       C712 0.031       .   A
C711       C717 0.035       .   A
C712       O721 0.032       .   A
C713       C725 0.036       .   A
C713       N728 0.026       .   A
C713       H732 0.025       .   A
C716       H718 0.025       .   A
C716       H719 0.025       .   A
C716       H720 0.025       .   A
C716       O721 0.034       .   A
C717       H722 0.025       .   A
C717       H723 0.025       .   A
C717       H724 0.025       .   A
C725       N726 0.034       .   A
C725       H730 0.025       .   A
C725       H731 0.025       .   A
N726       N727 0.026       .   A
N726       C729 0.031       .   A
N727       N728 0.031       .   A
C729       C733 0.031       .   A
C729       H735 0.026       .   A
C733       H734 0.025       .   A
C678       C679 0.031       .   A
C678       C683 0.031       .   A
C679       C680 0.031       .   A
C679       H686 0.025       .   A
C680       C681 0.031       .   A
C680       H685 0.025       .   A
C681       C682 0.031       .   A
C681       C684 0.035       .   A
C682       C683 0.031       .   A
C682       C688 0.035       .   A
C683       O692 0.032       .   A
C684       C696 0.036       .   A
C684       N699 0.026       .   A
C684       H703 0.025       .   A
C687       H689 0.025       .   A
C687       H690 0.025       .   A
C687       H691 0.025       .   A
C687       O692 0.034       .   A
C688       H693 0.025       .   A
C688       H694 0.025       .   A
C688       H695 0.025       .   A
C696       N697 0.034       .   A
C696       H701 0.025       .   A
C696       H702 0.025       .   A
N697       N698 0.026       .   A
N697       C700 0.031       .   A
N698       N699 0.031       .   A
C700       C704 0.031       .   A
C700       H706 0.026       .   A
C704       H705 0.025       .   A
C649       C650 0.031       .   A
C649       C654 0.031       .   A
C650       C651 0.031       .   A
C650       H657 0.025       .   A
C651       C652 0.031       .   A
C651       H656 0.025       .   A
C652       C653 0.031       .   A
C652       C655 0.035       .   A
C653       C654 0.031       .   A
C653       C659 0.035       .   A
C654       O663 0.032       .   A
C655       C667 0.036       .   A
C655       N670 0.026       .   A
C655       H674 0.025       .   A
C658       H660 0.025       .   A
C658       H661 0.025       .   A
C658       H662 0.025       .   A
C658       O663 0.034       .   A
C659       H664 0.025       .   A
C659       H665 0.025       .   A
C659       H666 0.025       .   A
C667       N668 0.034       .   A
C667       H672 0.025       .   A
C667       H673 0.025       .   A
N668       N669 0.026       .   A
N668       C671 0.031       .   A
N669       N670 0.031       .   A
C671       C675 0.031       .   A
C671       H677 0.026       .   A
C675       H676 0.025       .   A
C620       C621 0.031       .   A
C620       C625 0.031       .   A
C621       C622 0.031       .   A
C621       H628 0.025       .   A
C622       C623 0.031       .   A
C622       H627 0.025       .   A
C623       C624 0.031       .   A
C623       C626 0.035       .   A
C624       C625 0.031       .   A
C624       C630 0.035       .   A
C625       O634 0.032       .   A
C626       C638 0.036       .   A
C626       N641 0.026       .   A
C626       H645 0.025       .   A
C629       H631 0.025       .   A
C629       H632 0.025       .   A
C629       H633 0.025       .   A
C629       O634 0.034       .   A
C630       H635 0.025       .   A
C630       H636 0.025       .   A
C630       H637 0.025       .   A
C638       N639 0.034       .   A
C638       H643 0.025       .   A
C638       H644 0.025       .   A
N639       N640 0.026       .   A
N639       C642 0.031       .   A
N640       N641 0.031       .   A
C642       C646 0.031       .   A
C642       H648 0.026       .   A
C646       H647 0.025       .   A
C591       C592 0.031       .   A
C591       C596 0.031       .   A
C592       C593 0.031       .   A
C592       H599 0.025       .   A
C593       C594 0.031       .   A
C593       H598 0.025       .   A
C594       C595 0.031       .   A
C594       C597 0.035       .   A
C595       C596 0.031       .   A
C595       C601 0.035       .   A
C596       O605 0.032       .   A
C597       C609 0.036       .   A
C597       N612 0.026       .   A
C597       H616 0.025       .   A
C600       H602 0.025       .   A
C600       H603 0.025       .   A
C600       H604 0.025       .   A
C600       O605 0.034       .   A
C601       H606 0.025       .   A
C601       H607 0.025       .   A
C601       H608 0.025       .   A
C609       N610 0.034       .   A
C609       H614 0.025       .   A
C609       H615 0.025       .   A
N610       N611 0.026       .   A
N610       C613 0.031       .   A
N611       N612 0.031       .   A
C613       C617 0.031       .   A
C613       H619 0.026       .   A
C617       H618 0.025       .   A
C562       C563 0.031       .   A
C562       C567 0.031       .   A
C563       C564 0.031       .   A
C563       H570 0.025       .   A
C564       C565 0.031       .   A
C564       H569 0.025       .   A
C565       C566 0.031       .   A
C565       C568 0.035       .   A
C566       C567 0.031       .   A
C566       C572 0.035       .   A
C567       O576 0.032       .   A
C568       C580 0.036       .   A
C568       N583 0.026       .   A
C568       H587 0.025       .   A
C571       H573 0.025       .   A
C571       H574 0.025       .   A
C571       H575 0.025       .   A
C571       O576 0.034       .   A
C572       H577 0.025       .   A
C572       H578 0.025       .   A
C572       H579 0.025       .   A
C580       N581 0.034       .   A
C580       H585 0.025       .   A
C580       H586 0.025       .   A
N581       N582 0.026       .   A
N581       C584 0.031       .   A
N582       N583 0.031       .   A
C584       C588 0.031       .   A
C584       H590 0.026       .   A
C588       H589 0.025       .   A
C533       C534 0.031       .   A
C533       C538 0.031       .   A
C534       C535 0.031       .   A
C534       H541 0.025       .   A
C535       C536 0.031       .   A
C535       H540 0.025       .   A
C536       C537 0.031       .   A
C536       C539 0.035       .   A
C537       C538 0.031       .   A
C537       C543 0.035       .   A
C538       O547 0.032       .   A
C539       C551 0.036       .   A
C539       N554 0.026       .   A
C539       H558 0.025       .   A
C542       H544 0.025       .   A
C542       H545 0.025       .   A
C542       H546 0.025       .   A
C542       O547 0.034       .   A
C543       H548 0.025       .   A
C543       H549 0.025       .   A
C543       H550 0.025       .   A
C551       N552 0.034       .   A
C551       H556 0.025       .   A
C551       H557 0.025       .   A
N552       N553 0.026       .   A
N552       C555 0.031       .   A
N553       N554 0.031       .   A
C555       C559 0.031       .   A
C555       H561 0.026       .   A
C559       H560 0.025       .   A
C504       C505 0.031       .   A
C504       C509 0.031       .   A
C505       C506 0.031       .   A
C505       H512 0.025       .   A
C506       C507 0.031       .   A
C506       H511 0.025       .   A
C507       C508 0.031       .   A
C507       C510 0.035       .   A
C508       C509 0.031       .   A
C508       C514 0.035       .   A
C509       O518 0.032       .   A
C510       C522 0.036       .   A
C510       N525 0.026       .   A
C510       H529 0.025       .   A
C513       H515 0.025       .   A
C513       H516 0.025       .   A
C513       H517 0.025       .   A
C513       O518 0.034       .   A
C514       H519 0.025       .   A
C514       H520 0.025       .   A
C514       H521 0.025       .   A
C522       N523 0.034       .   A
C522       H527 0.025       .   A
C522       H528 0.025       .   A
N523       N524 0.026       .   A
N523       C526 0.031       .   A
N524       N525 0.031       .   A
C526       C530 0.031       .   A
C526       H532 0.026       .   A
C530       H531 0.025       .   A
C475       C476 0.031       .   A
C475       C480 0.031       .   A
C476       C477 0.031       .   A
C476       H483 0.025       .   A
C477       C478 0.031       .   A
C477       H482 0.025       .   A
C478       C479 0.031       .   A
C478       C481 0.035       .   A
C479       C480 0.031       .   A
C479       C485 0.035       .   A
C480       O489 0.032       .   A
C481       C493 0.036       .   A
C481       N496 0.026       .   A
C481       H500 0.025       .   A
C484       H486 0.025       .   A
C484       H487 0.025       .   A
C484       H488 0.025       .   A
C484       O489 0.034       .   A
C485       H490 0.025       .   A
C485       H491 0.025       .   A
C485       H492 0.025       .   A
C493       N494 0.034       .   A
C493       H498 0.025       .   A
C493       H499 0.025       .   A
N494       N495 0.026       .   A
N494       C497 0.031       .   A
N495       N496 0.031       .   A
C497       C501 0.031       .   A
C497       H503 0.026       .   A
C501       H502 0.025       .   A
C446       C447 0.031       .   A
C446       C451 0.031       .   A
C447       C448 0.031       .   A
C447       H454 0.025       .   A
C448       C449 0.031       .   A
C448       H453 0.025       .   A
C449       C450 0.031       .   A
C449       C452 0.035       .   A
C450       C451 0.031       .   A
C450       C456 0.035       .   A
C451       O460 0.032       .   A
C452       C464 0.036       .   A
C452       N467 0.026       .   A
C452       H471 0.025       .   A
C455       H457 0.025       .   A
C455       H458 0.025       .   A
C455       H459 0.025       .   A
C455       O460 0.034       .   A
C456       H461 0.025       .   A
C456       H462 0.025       .   A
C456       H463 0.025       .   A
C464       N465 0.034       .   A
C464       H469 0.025       .   A
C464       H470 0.025       .   A
N465       N466 0.026       .   A
N465       C468 0.031       .   A
N466       N467 0.031       .   A
C468       C472 0.031       .   A
C468       H474 0.026       .   A
C472       H473 0.025       .   A
C417       C418 0.031       .   A
C417       C422 0.031       .   A
C418       C419 0.031       .   A
C418       H425 0.025       .   A
C419       C420 0.031       .   A
C419       H424 0.025       .   A
C420       C421 0.031       .   A
C420       C423 0.035       .   A
C421       C422 0.031       .   A
C421       C427 0.035       .   A
C422       O431 0.032       .   A
C423       C435 0.036       .   A
C423       N438 0.026       .   A
C423       H442 0.025       .   A
C426       H428 0.025       .   A
C426       H429 0.025       .   A
C426       H430 0.025       .   A
C426       O431 0.034       .   A
C427       H432 0.025       .   A
C427       H433 0.025       .   A
C427       H434 0.025       .   A
C435       N436 0.034       .   A
C435       H440 0.025       .   A
C435       H441 0.025       .   A
N436       N437 0.026       .   A
N436       C439 0.031       .   A
N437       N438 0.031       .   A
C439       C443 0.031       .   A
C439       H445 0.026       .   A
C443       H444 0.025       .   A
C388       C389 0.031       .   A
C388       C393 0.031       .   A
C389       C390 0.031       .   A
C389       H396 0.025       .   A
C390       C391 0.031       .   A
C390       H395 0.025       .   A
C391       C392 0.031       .   A
C391       C394 0.035       .   A
C392       C393 0.031       .   A
C392       C398 0.035       .   A
C393       O402 0.032       .   A
C394       C406 0.036       .   A
C394       N409 0.026       .   A
C394       H413 0.025       .   A
C397       H399 0.025       .   A
C397       H400 0.025       .   A
C397       H401 0.025       .   A
C397       O402 0.034       .   A
C398       H403 0.025       .   A
C398       H404 0.025       .   A
C398       H405 0.025       .   A
C406       N407 0.034       .   A
C406       H411 0.025       .   A
C406       H412 0.025       .   A
N407       N408 0.026       .   A
N407       C410 0.031       .   A
N408       N409 0.031       .   A
C410       C414 0.031       .   A
C410       H416 0.026       .   A
C414       H415 0.025       .   A
C359       C360 0.031       .   A
C359       C364 0.031       .   A
C360       C361 0.031       .   A
C360       H367 0.025       .   A
C361       C362 0.031       .   A
C361       H366 0.025       .   A
C362       C363 0.031       .   A
C362       C365 0.035       .   A
C363       C364 0.031       .   A
C363       C369 0.035       .   A
C364       O373 0.032       .   A
C365       C377 0.036       .   A
C365       N380 0.026       .   A
C365       H384 0.025       .   A
C368       H370 0.025       .   A
C368       H371 0.025       .   A
C368       H372 0.025       .   A
C368       O373 0.034       .   A
C369       H374 0.025       .   A
C369       H375 0.025       .   A
C369       H376 0.025       .   A
C377       N378 0.034       .   A
C377       H382 0.025       .   A
C377       H383 0.025       .   A
N378       N379 0.026       .   A
N378       C381 0.031       .   A
N379       N380 0.031       .   A
C381       C385 0.031       .   A
C381       H387 0.026       .   A
C385       H386 0.025       .   A
C330       C331 0.031       .   A
C330       C335 0.031       .   A
C331       C332 0.031       .   A
C331       H338 0.025       .   A
C332       C333 0.031       .   A
C332       H337 0.025       .   A
C333       C334 0.031       .   A
C333       C336 0.035       .   A
C334       C335 0.031       .   A
C334       C340 0.035       .   A
C335       O344 0.032       .   A
C336       C348 0.036       .   A
C336       N351 0.026       .   A
C336       H355 0.025       .   A
C339       H341 0.025       .   A
C339       H342 0.025       .   A
C339       H343 0.025       .   A
C339       O344 0.034       .   A
C340       H345 0.025       .   A
C340       H346 0.025       .   A
C340       H347 0.025       .   A
C348       N349 0.034       .   A
C348       H353 0.025       .   A
C348       H354 0.025       .   A
N349       N350 0.026       .   A
N349       C352 0.031       .   A
N350       N351 0.031       .   A
C352       C356 0.031       .   A
C352       H358 0.026       .   A
C356       H357 0.025       .   A
C301       C302 0.031       .   A
C301       C306 0.031       .   A
C302       C303 0.031       .   A
C302       H309 0.025       .   A
C303       C304 0.031       .   A
C303       H308 0.025       .   A
C304       C305 0.031       .   A
C304       C307 0.035       .   A
C305       C306 0.031       .   A
C305       C311 0.035       .   A
C306       O315 0.032       .   A
C307       C319 0.036       .   A
C307       N322 0.026       .   A
C307       H326 0.025       .   A
C310       H312 0.025       .   A
C310       H313 0.025       .   A
C310       H314 0.025       .   A
C310       O315 0.034       .   A
C311       H316 0.025       .   A
C311       H317 0.025       .   A
C311       H318 0.025       .   A
C319       N320 0.034       .   A
C319       H324 0.025       .   A
C319       H325 0.025       .   A
N320       N321 0.026       .   A
N320       C323 0.031       .   A
N321       N322 0.031       .   A
C323       C327 0.031       .   A
C323       H329 0.026       .   A
C327       H328 0.025       .   A
C272       C273 0.031       .   A
C272       C277 0.031       .   A
C273       C274 0.031       .   A
C273       H280 0.025       .   A
C274       C275 0.031       .   A
C274       H279 0.025       .   A
C275       C276 0.031       .   A
C275       C278 0.035       .   A
C276       C277 0.031       .   A
C276       C282 0.035       .   A
C277       O286 0.032       .   A
C278       C290 0.036       .   A
C278       N293 0.026       .   A
C278       H297 0.025       .   A
C281       H283 0.025       .   A
C281       H284 0.025       .   A
C281       H285 0.025       .   A
C281       O286 0.034       .   A
C282       H287 0.025       .   A
C282       H288 0.025       .   A
C282       H289 0.025       .   A
C290       N291 0.034       .   A
C290       H295 0.025       .   A
C290       H296 0.025       .   A
N291       N292 0.026       .   A
N291       C294 0.031       .   A
N292       N293 0.031       .   A
C294       C298 0.031       .   A
C294       H300 0.026       .   A
C298       H299 0.025       .   A
C243       C244 0.031       .   A
C243       C248 0.031       .   A
C244       C245 0.031       .   A
C244       H251 0.025       .   A
C245       C246 0.031       .   A
C245       H250 0.025       .   A
C246       C247 0.031       .   A
C246       C249 0.035       .   A
C247       C248 0.031       .   A
C247       C253 0.035       .   A
C248       O257 0.032       .   A
C249       C261 0.036       .   A
C249       N264 0.026       .   A
C249       H268 0.025       .   A
C252       H254 0.025       .   A
C252       H255 0.025       .   A
C252       H256 0.025       .   A
C252       O257 0.034       .   A
C253       H258 0.025       .   A
C253       H259 0.025       .   A
C253       H260 0.025       .   A
C261       N262 0.034       .   A
C261       H266 0.025       .   A
C261       H267 0.025       .   A
N262       N263 0.026       .   A
N262       C265 0.031       .   A
N263       N264 0.031       .   A
C265       C269 0.031       .   A
C265       H271 0.026       .   A
C269       H270 0.025       .   A
C214       C215 0.031       .   A
C214       C219 0.031       .   A
C215       C216 0.031       .   A
C215       H222 0.025       .   A
C216       C217 0.031       .   A
C216       H221 0.025       .   A
C217       C218 0.031       .   A
C217       C220 0.035       .   A
C218       C219 0.031       .   A
C218       C224 0.035       .   A
C219       O228 0.032       .   A
C220       C232 0.036       .   A
C220       N235 0.026       .   A
C220       H239 0.025       .   A
C223       H225 0.025       .   A
C223       H226 0.025       .   A
C223       H227 0.025       .   A
C223       O228 0.034       .   A
C224       H229 0.025       .   A
C224       H230 0.025       .   A
C224       H231 0.025       .   A
C232       N233 0.034       .   A
C232       H237 0.025       .   A
C232       H238 0.025       .   A
N233       N234 0.026       .   A
N233       C236 0.031       .   A
N234       N235 0.031       .   A
C236       C240 0.031       .   A
C236       H242 0.026       .   A
C240       H241 0.025       .   A
C185       C186 0.031       .   A
C185       C190 0.031       .   A
C186       C187 0.031       .   A
C186       H193 0.025       .   A
C187       C188 0.031       .   A
C187       H192 0.025       .   A
C188       C189 0.031       .   A
C188       C191 0.035       .   A
C189       C190 0.031       .   A
C189       C195 0.035       .   A
C190       O199 0.032       .   A
C191       C203 0.036       .   A
C191       N206 0.026       .   A
C191       H210 0.025       .   A
C194       H196 0.025       .   A
C194       H197 0.025       .   A
C194       H198 0.025       .   A
C194       O199 0.034       .   A
C195       H200 0.025       .   A
C195       H201 0.025       .   A
C195       H202 0.025       .   A
C203       N204 0.034       .   A
C203       H208 0.025       .   A
C203       H209 0.025       .   A
N204       N205 0.026       .   A
N204       C207 0.031       .   A
N205       N206 0.031       .   A
C207       C211 0.031       .   A
C207       H213 0.026       .   A
C211       H212 0.025       .   A
