data_pcu_v1-6c_Zn_1_Ch_Test111_BOND_CHECK
_audit_creation_date              2020-12-02
_audit_creation_method            'tobacco_3.0'
_symmetry_space_group_name_H-M    'P1'
_symmetry_Int_Tables_number       1
_symmetry_cell_setting            triclinic
loop_
_symmetry_equiv_pos_as_xyz
  x,y,z
_cell_length_a                    26.15220120015885
_cell_length_b                    26.15220120015885
_cell_length_c                    26.15220120015885
_cell_angle_alpha                 90.0
_cell_angle_beta                  90.0
_cell_angle_gamma                 90.0
loop_
_atom_site_label
_atom_site_type_symbol
_atom_site_fract_x
_atom_site_fract_y
_atom_site_fract_z
Zn1       Zn   -0.0428721082    0.0428721082    0.0428721082
Zn2       Zn    0.0428721082    0.0428721082   -0.0428721082
Zn3       Zn    0.0428721082   -0.0428721082    0.0428721082
Zn4       Zn   -0.0428721082   -0.0428721082   -0.0428721082
O5         O    0.0000000000    0.0000000000    0.0000000000
O6         O   -0.0315078640    0.1145830891    0.0315078640
O7         O    0.1145830891    0.0315078640   -0.0315078640
O8         O    0.0315078640   -0.0315078640    0.1145830891
O9         O    0.0315078640    0.1145830891   -0.0315078640
O10        O   -0.0315078640    0.0315078640    0.1145830891
O11        O    0.1145830891   -0.0315078640    0.0315078640
O12        O   -0.0315078640   -0.1145830891   -0.0315078640
O13        O    0.0315078640    0.0315078640   -0.1145830891
O14        O    0.0315078640   -0.1145830891    0.0315078640
O15        O   -0.0315078640   -0.0315078640   -0.1145830891
O16        O   -0.1145830891   -0.0315078640   -0.0315078640
O17        O   -0.1145830891    0.0315078640    0.0315078640
C18        C   -0.0000000000    0.1369980283   -0.0000000000
C19        C    0.1369980283   -0.0000000000   -0.0000000000
C20        C   -0.0000000000    0.0000000000    0.1369980283
C21        C    0.0000000000   -0.1369980283    0.0000000000
C22        C    0.0000000000   -0.0000000000   -0.1369980283
C23        C   -0.1369980283    0.0000000000    0.0000000000
Zn24      Zn    0.9571278918    0.0428721082    0.4571278918
Zn25      Zn    1.0428721082   -0.0428721082    0.4571278918
Zn26      Zn    1.0428721082    0.0428721082    0.5428721082
Zn27      Zn    0.9571278918   -0.0428721082    0.5428721082
O28        O    1.0000000000    0.0000000000    0.5000000000
O29        O    0.9684921360    0.0315078640    0.3854169109
O30        O    1.1145830891   -0.0315078640    0.4684921360
O31        O    1.0315078640    0.1145830891    0.5315078640
O32        O    1.0315078640   -0.0315078640    0.3854169109
O33        O    0.9684921360    0.1145830891    0.4684921360
O34        O    1.1145830891    0.0315078640    0.5315078640
O35        O    0.9684921360   -0.0315078640    0.6145830891
O36        O    1.0315078640   -0.1145830891    0.4684921360
O37        O    1.0315078640    0.0315078640    0.6145830891
O38        O    0.9684921360   -0.1145830891    0.5315078640
O39        O    0.8854169109   -0.0315078640    0.5315078640
O40        O    0.8854169109    0.0315078640    0.4684921360
C41        C    1.0000000000    0.0000000000    0.3630019717
C42        C    1.1369980283    0.0000000000    0.5000000000
C43        C    1.0000000000    0.1369980283    0.5000000000
C44        C    1.0000000000    0.0000000000    0.6369980283
C45        C    1.0000000000   -0.1369980283    0.5000000000
C46        C    0.8630019717    0.0000000000    0.5000000000
Zn47      Zn    1.0428721082    0.4571278918   -0.0428721082
Zn48      Zn    0.9571278918    0.4571278918    0.0428721082
Zn49      Zn    1.0428721082    0.5428721082    0.0428721082
Zn50      Zn    0.9571278918    0.5428721082   -0.0428721082
O51        O    1.0000000000    0.5000000000    0.0000000000
O52        O    1.0315078640    0.3854169109   -0.0315078640
O53        O    0.9684921360    0.4684921360    0.1145830891
O54        O    1.1145830891    0.5315078640    0.0315078640
O55        O    0.9684921360    0.3854169109    0.0315078640
O56        O    1.1145830891    0.4684921360   -0.0315078640
O57        O    1.0315078640    0.5315078640    0.1145830891
O58        O    0.9684921360    0.6145830891   -0.0315078640
O59        O    0.8854169109    0.4684921360    0.0315078640
O60        O    1.0315078640    0.6145830891    0.0315078640
O61        O    0.8854169109    0.5315078640   -0.0315078640
O62        O    0.9684921360    0.5315078640   -0.1145830891
O63        O    1.0315078640    0.4684921360   -0.1145830891
C64        C    1.0000000000    0.3630019717    0.0000000000
C65        C    1.0000000000    0.5000000000    0.1369980283
C66        C    1.1369980283    0.5000000000    0.0000000000
C67        C    1.0000000000    0.6369980283    0.0000000000
C68        C    0.8630019717    0.5000000000    0.0000000000
C69        C    1.0000000000    0.5000000000   -0.1369980283
Zn70      Zn    0.9571278918    0.4571278918    0.5428721082
Zn71      Zn    1.0428721082    0.4571278918    0.4571278918
Zn72      Zn    0.9571278918    0.5428721082    0.4571278918
Zn73      Zn    1.0428721082    0.5428721082    0.5428721082
O74        O    1.0000000000    0.5000000000    0.5000000000
O75        O    0.9684921360    0.3854169109    0.5315078640
O76        O    1.0315078640    0.4684921360    0.3854169109
O77        O    0.8854169109    0.5315078640    0.4684921360
O78        O    1.0315078640    0.3854169109    0.4684921360
O79        O    0.8854169109    0.4684921360    0.5315078640
O80        O    0.9684921360    0.5315078640    0.3854169109
O81        O    1.0315078640    0.6145830891    0.5315078640
O82        O    1.1145830891    0.4684921360    0.4684921360
O83        O    0.9684921360    0.6145830891    0.4684921360
O84        O    1.1145830891    0.5315078640    0.5315078640
O85        O    1.0315078640    0.5315078640    0.6145830891
O86        O    0.9684921360    0.4684921360    0.6145830891
C87        C    1.0000000000    0.3630019717    0.5000000000
C88        C    1.0000000000    0.5000000000    0.3630019717
C89        C    0.8630019717    0.5000000000    0.5000000000
C90        C    1.0000000000    0.6369980283    0.5000000000
C91        C    1.1369980283    0.5000000000    0.5000000000
C92        C    1.0000000000    0.5000000000    0.6369980283
Zn93      Zn    0.4571278918    1.0428721082   -0.0428721082
Zn94      Zn    0.4571278918    0.9571278918    0.0428721082
Zn95      Zn    0.5428721082    0.9571278918   -0.0428721082
Zn96      Zn    0.5428721082    1.0428721082    0.0428721082
O97        O    0.5000000000    1.0000000000    0.0000000000
O98        O    0.3854169109    1.0315078640   -0.0315078640
O99        O    0.4684921360    0.8854169109    0.0315078640
O100       O    0.5315078640    0.9684921360   -0.1145830891
O101       O    0.3854169109    0.9684921360    0.0315078640
O102       O    0.4684921360    1.0315078640   -0.1145830891
O103       O    0.5315078640    0.8854169109   -0.0315078640
O104       O    0.6145830891    1.0315078640    0.0315078640
O105       O    0.4684921360    0.9684921360    0.1145830891
O106       O    0.6145830891    0.9684921360   -0.0315078640
O107       O    0.5315078640    1.0315078640    0.1145830891
O108       O    0.5315078640    1.1145830891    0.0315078640
O109       O    0.4684921360    1.1145830891   -0.0315078640
C110       C    0.3630019717    1.0000000000    0.0000000000
C111       C    0.5000000000    0.8630019717    0.0000000000
C112       C    0.5000000000    1.0000000000   -0.1369980283
C113       C    0.6369980283    1.0000000000    0.0000000000
C114       C    0.5000000000    1.0000000000    0.1369980283
C115       C    0.5000000000    1.1369980283    0.0000000000
Zn116     Zn    0.4571278918    1.0428721082    0.4571278918
Zn117     Zn    0.4571278918    0.9571278918    0.5428721082
Zn118     Zn    0.5428721082    0.9571278918    0.4571278918
Zn119     Zn    0.5428721082    1.0428721082    0.5428721082
O120       O    0.5000000000    1.0000000000    0.5000000000
O121       O    0.3854169109    1.0315078640    0.4684921360
O122       O    0.4684921360    0.8854169109    0.5315078640
O123       O    0.5315078640    0.9684921360    0.3854169109
O124       O    0.3854169109    0.9684921360    0.5315078640
O125       O    0.4684921360    1.0315078640    0.3854169109
O126       O    0.5315078640    0.8854169109    0.4684921360
O127       O    0.6145830891    1.0315078640    0.5315078640
O128       O    0.4684921360    0.9684921360    0.6145830891
O129       O    0.6145830891    0.9684921360    0.4684921360
O130       O    0.5315078640    1.0315078640    0.6145830891
O131       O    0.5315078640    1.1145830891    0.5315078640
O132       O    0.4684921360    1.1145830891    0.4684921360
C133       C    0.3630019717    1.0000000000    0.5000000000
C134       C    0.5000000000    0.8630019717    0.5000000000
C135       C    0.5000000000    1.0000000000    0.3630019717
C136       C    0.6369980283    1.0000000000    0.5000000000
C137       C    0.5000000000    1.0000000000    0.6369980283
C138       C    0.5000000000    1.1369980283    0.5000000000
Zn139     Zn    0.4571278918    0.5428721082   -0.0428721082
Zn140     Zn    0.4571278918    0.4571278918    0.0428721082
Zn141     Zn    0.5428721082    0.4571278918   -0.0428721082
Zn142     Zn    0.5428721082    0.5428721082    0.0428721082
O143       O    0.5000000000    0.5000000000    0.0000000000
O144       O    0.3854169109    0.5315078640   -0.0315078640
O145       O    0.4684921360    0.3854169109    0.0315078640
O146       O    0.5315078640    0.4684921360   -0.1145830891
O147       O    0.3854169109    0.4684921360    0.0315078640
O148       O    0.4684921360    0.5315078640   -0.1145830891
O149       O    0.5315078640    0.3854169109   -0.0315078640
O150       O    0.6145830891    0.5315078640    0.0315078640
O151       O    0.4684921360    0.4684921360    0.1145830891
O152       O    0.6145830891    0.4684921360   -0.0315078640
O153       O    0.5315078640    0.5315078640    0.1145830891
O154       O    0.5315078640    0.6145830891    0.0315078640
O155       O    0.4684921360    0.6145830891   -0.0315078640
C156       C    0.3630019717    0.5000000000    0.0000000000
C157       C    0.5000000000    0.3630019717    0.0000000000
C158       C    0.5000000000    0.5000000000   -0.1369980283
C159       C    0.6369980283    0.5000000000    0.0000000000
C160       C    0.5000000000    0.5000000000    0.1369980283
C161       C    0.5000000000    0.6369980283    0.0000000000
Zn162     Zn    0.4571278918    0.5428721082    0.4571278918
Zn163     Zn    0.4571278918    0.4571278918    0.5428721082
Zn164     Zn    0.5428721082    0.4571278918    0.4571278918
Zn165     Zn    0.5428721082    0.5428721082    0.5428721082
O166       O    0.5000000000    0.5000000000    0.5000000000
O167       O    0.3854169109    0.5315078640    0.4684921360
O168       O    0.4684921360    0.3854169109    0.5315078640
O169       O    0.5315078640    0.4684921360    0.3854169109
O170       O    0.3854169109    0.4684921360    0.5315078640
O171       O    0.4684921360    0.5315078640    0.3854169109
O172       O    0.5315078640    0.3854169109    0.4684921360
O173       O    0.6145830891    0.5315078640    0.5315078640
O174       O    0.4684921360    0.4684921360    0.6145830891
O175       O    0.6145830891    0.4684921360    0.4684921360
O176       O    0.5315078640    0.5315078640    0.6145830891
O177       O    0.5315078640    0.6145830891    0.5315078640
O178       O    0.4684921360    0.6145830891    0.4684921360
C179       C    0.3630019717    0.5000000000    0.5000000000
C180       C    0.5000000000    0.3630019717    0.5000000000
C181       C    0.5000000000    0.5000000000    0.3630019717
C182       C    0.6369980283    0.5000000000    0.5000000000
C183       C    0.5000000000    0.5000000000    0.6369980283
C184       C    0.5000000000    0.6369980283    0.5000000000
C415       C    0.5000000000    0.5000000000   -0.1958840849
C415       C    0.4541735727    0.4939288664   -0.2234091435
C416       C    0.4541816600    0.4939292117   -0.2768372894
C416       C    0.5000000000    0.5000000000   -0.3041159151
C417       C    0.5458571004    0.5060760563   -0.2767853996
C418       C    0.5460202687    0.5060958489   -0.2232956551
F415       F    0.5913388067    0.5120960673   -0.1987327620
H415       H    0.5817945504    0.5108331996   -0.2968094424
H416       H    0.4181878458    0.4891625558   -0.2967364594
H417       H    0.4180994977    0.4891513370   -0.2036420785
C405       C    0.5000000000    0.5000000000    0.1958840849
C405       C    0.4542656330    0.5067296191    0.2234091435
C406       C    0.4542737144    0.5067291576    0.2768372894
C406       C    0.5000000000    0.5000000000    0.3041159151
C407       C    0.5457649661    0.4932650176    0.2767853996
C408       C    0.5459278329    0.4932428801    0.2232956551
F405       F    0.5911553831    0.4865914738    0.1987327620
H405       H    0.5816302777    0.4879914842    0.2968094424
H406       H    0.4183521813    0.5120130131    0.2967364594
H407       H    0.4182640037    0.5120255014    0.2036420785
C395       C    0.5000000000    0.8041159151    0.5000000000
C395       C    0.5422237288    0.7765908565    0.5188169291
C396       C    0.5422166575    0.7231627106    0.5188129897
C396       C    0.5000000000    0.6958840849    0.5000000000
C397       C    0.4577475597    0.7232146004    0.4811712081
C398       C    0.4575981740    0.7767043449    0.4811026549
F395       F    0.4158443061    0.8012672380    0.4624911793
H395       H    0.4246374099    0.7031905576    0.4664115093
H396       H    0.5753798111    0.7032635406    0.5335940897
H397       H    0.5754609593    0.7963579215    0.5336307803
C385       C    0.5000000000    1.1958840849    0.5000000000
C385       C    0.4934669212    1.2234091435    0.4542371441
C386       C    0.4934687732    1.2768372894    0.4542450240
C386       C    0.5000000000    1.3041159151    0.5000000000
C387       C    0.5065366245    1.2767853996    0.5457937185
C388       C    0.5065616422    1.2232956551    0.5459561677
F385       F    0.5130258103    1.1987327620    0.5912108585
H385       H    0.5116636606    1.2968094424    0.5816802651
H386       H    0.4883356710    1.2967364594    0.4183016389
H387       H    0.4883226084    1.2036420785    0.4182135445
C375       C    0.5000000000    0.6958840849    0.0000000000
C375       C    0.5446073746    0.7234091435    0.0121285706
C376       C    0.5445994057    0.7768372894    0.0121271499
C376       C    0.5000000000    0.8041159151    0.0000000000
C377       C    0.4553628828    0.7767853996   -0.0121375401
C378       C    0.4552038117    0.7232956551   -0.0121789170
F375       F    0.4110903317    0.6987327620   -0.0241694709
H375       H    0.4203809050    0.7968094424   -0.0216450087
H376       H    0.5796359755    0.7967364594    0.0216515630
H377       H    0.5797220382    0.7036420785    0.0216744642
C365       C    0.5000000000    1.1958840849    0.0000000000
C365       C    0.5016772120    1.2234091435   -0.0461963966
C366       C    0.5016776389    1.2768372894   -0.0461883133
C366       C    0.5000000000    1.3041159151    0.0000000000
C367       C    0.4983208102    1.2767853996    0.0462273992
C368       C    0.4983166541    1.2232956551    0.0463917110
F365       F    0.4966616435    1.1987327620    0.0920757722
H365       H    0.4970093975    1.2968094424    0.0824546116
H366       H    0.5029931504    1.2967364594   -0.0824725398
H367       H    0.5029959004    1.2036420785   -0.0825615549
C355       C    0.5000000000    1.0000000000   -0.1958840849
C355       C    0.4777136847    1.0404998796   -0.2234091435
C356       C    0.4777169410    1.0404924689   -0.2768372894
C356       C    0.5000000000    1.0000000000   -0.3041159151
C357       C    0.5223020328    0.9594733243   -0.2767853996
C358       C    0.5223796851    0.9593284596   -0.2232956551
F355       F    0.5444156215    0.9192761187   -0.1987327620
H355       H    0.5397755161    0.9277115846   -0.2968094424
H356       H    0.4602141408    1.0723032792   -0.2967364594
H357       H    0.4601716279    1.0723815346   -0.2036420785
C345       C    0.5000000000    1.0000000000    0.1958840849
C345       C    0.5457343670    0.9932703809    0.2234091435
C346       C    0.5457262856    0.9932708424    0.2768372894
C346       C    0.5000000000    1.0000000000    0.3041159151
C347       C    0.4542350339    1.0067349824    0.2767853996
C348       C    0.4540721671    1.0067571199    0.2232956551
F345       F    0.4088446169    1.0134085262    0.1987327620
H345       H    0.4183697223    1.0120085158    0.2968094424
H346       H    0.5816478187    0.9879869869    0.2967364594
H347       H    0.5817359963    0.9879744986    0.2036420785
C335       C    0.8041159151    0.5000000000    0.5000000000
C335       C    0.7765908565    0.4572255161    0.5175289368
C336       C    0.7231627106    0.4572327035    0.5175252134
C336       C    0.6958840849    0.5000000000    0.5000000000
C337       C    0.7232146004    0.5428035416    0.4824600758
C338       C    0.7767043449    0.5429549359    0.4823960804
F335       F    0.8012672380    0.5852535494    0.4650582663
H335       H    0.7031905576    0.5763456992    0.4687103708
H336       H    0.7032635406    0.4236369180    0.5312947039
H337       H    0.7963579215    0.4235546953    0.5313289189
C325       C    1.1958840849    0.5000000000    0.5000000000
C325       C    1.2234091435    0.5299566709    0.4647932114
C326       C    1.2768372894    0.5299508978    0.4647988854
C326       C    1.3041159151    0.5000000000    0.5000000000
C327       C    1.2767853996    0.4700238536    0.5352309915
C328       C    1.2232956551    0.4699159688    0.5353549935
F325       F    1.1987327620    0.4402888730    0.5701688945
H325       H    1.2968094424    0.4465289886    0.5628375495
H326       H    1.2967364594    0.5534812380    0.4371475063
H327       H    1.2036420785    0.5535393163    0.4370799922
C315       C    0.6958840849    0.5000000000    0.0000000000
C315       C    0.7234091435    0.5429597047    0.0170699699
C316       C    0.7768372894    0.5429524778    0.0170663237
C316       C    0.8041159151    0.5000000000    0.0000000000
C317       C    0.7767853996    0.4570111217   -0.0170806456
C318       C    0.7232956551    0.4568590509   -0.0171430165
F315       F    0.6987327620    0.4143772356   -0.0340269696
H315       H    0.7968094424    0.4233236763   -0.0304704457
H316       H    0.7967364594    0.5766937598    0.0304753340
H317       H    0.7036420785    0.5767763442    0.0305086668
C305       C    1.3041159151    0.5000000000    0.0000000000
C305       C    1.2765908565    0.5462261519    0.0002509519
C306       C    1.2231627106    0.5462180856    0.0002516280
C306       C    1.1958840849    0.5000000000    0.0000000000
C307       C    1.2232146004    0.4537427992   -0.0002519721
C308       C    1.2767043449    0.4535784374   -0.0002510561
F305       F    1.3012672380    0.4078650620   -0.0004956262
H305       H    1.2031905576    0.4174923716   -0.0004449135
H306       H    1.2032635406    0.5825256266    0.0004469070
H307       H    1.2963579215    0.5826146842    0.0004469090
C295       C    1.0000000000    0.5000000000   -0.1958840849
C295       C    0.9542656330    0.4932703809   -0.2234091435
C296       C    0.9542737144    0.4932708424   -0.2768372894
C296       C    1.0000000000    0.5000000000   -0.3041159151
C297       C    1.0457649661    0.5067349824   -0.2767853996
C298       C    1.0459278329    0.5067571199   -0.2232956551
F295       F    1.0911553831    0.5134085262   -0.1987327620
H295       H    1.0816302777    0.5120085158   -0.2968094424
H296       H    0.9183521813    0.4879869869   -0.2967364594
H297       H    0.9182640037    0.4879744986   -0.2036420785
C285       C    1.0000000000    0.5000000000    0.1958840849
C285       C    0.9542656330    0.5067296191    0.2234091435
C286       C    0.9542737144    0.5067291576    0.2768372894
C286       C    1.0000000000    0.5000000000    0.3041159151
C287       C    1.0457649661    0.4932650176    0.2767853996
C288       C    1.0459278329    0.4932428801    0.2232956551
F285       F    1.0911553831    0.4865914738    0.1987327620
H285       H    1.0816302777    0.4879914842    0.2968094424
H286       H    0.9183521813    0.5120130131    0.2967364594
H287       H    0.9182640037    0.5120255014    0.2036420785
C275       C    1.0000000000   -0.1958840849    0.5000000000
C275       C    1.0444568914   -0.2234091435    0.4873309468
C276       C    1.0444489402   -0.2768372894    0.4873324641
C276       C    1.0000000000   -0.3041159151    0.5000000000
C277       C    0.9555134771   -0.2767853996    0.5126783830
C278       C    0.9553549200   -0.2232956551    0.5127216874
F275       F    0.9113902118   -0.1987327620    0.5252467399
H275       H    0.9206494628   -0.2968094424    0.5226097089
H276       H    1.0793673369   -0.2967364594    0.4773835324
H277       H    1.0794531153   -0.2036420785    0.4773595884
C265       C    1.0000000000    0.1958840849    0.5000000000
C265       C    1.0444568914    0.2234091435    0.5126690532
C266       C    1.0444489402    0.2768372894    0.5126675359
C266       C    1.0000000000    0.3041159151    0.5000000000
C267       C    0.9555134771    0.2767853996    0.4873216170
C268       C    0.9553549200    0.2232956551    0.4872783126
F265       F    0.9113902118    0.1987327620    0.4747532601
H265       H    0.9206494628    0.2968094424    0.4773902911
H266       H    1.0793673369    0.2967364594    0.5226164676
H267       H    1.0794531153    0.2036420785    0.5226404116
C255       C    0.6958840849   -0.0000000000    0.5000000000
C255       C    0.7234091435   -0.0343058798    0.4690157022
C256       C    0.7768372894   -0.0343003789    0.4690216405
C256       C    0.8041159151   -0.0000000000    0.5000000000
C257       C    0.7767853996    0.0343294964    0.5310044802
C258       C    0.7232956551    0.0344502552    0.5311159834
F255       F    0.6987327620    0.0683731613    0.5617592363
H255       H    0.7968094424    0.0612294787    0.5553051319
H256       H    0.7967364594   -0.0612441141    0.4446842042
H257       H    0.7036420785   -0.0613098819    0.4446241555
C245       C    1.1958840849   -0.0000000000    0.5000000000
C245       C    1.2234091435    0.0438063739    0.4852378286
C246       C    1.2768372894    0.0437985037    0.4852397212
C246       C    1.3041159151   -0.0000000000    0.5000000000
C247       C    1.2767853996   -0.0438355299    0.5147728952
C248       C    1.2232956551   -0.0439918561    0.5148236670
F245       F    1.1987327620   -0.0873134260    0.5294186689
H245       H    1.2968094424   -0.0781895849    0.5263456922
H246       H    1.2967364594    0.0782060454    0.4736467603
H247       H    1.2036420785    0.0782905924    0.4736187771
C235       C    0.0000000000   -0.3041159151    0.0000000000
C235       C   -0.0457845327   -0.2765908565   -0.0063793936
C236       C   -0.0457764480   -0.2231627106   -0.0063789940
C236       C    0.0000000000   -0.1958840849    0.0000000000
C237       C    0.0458151720   -0.2232146004    0.0063845226
C238       C    0.0459782034   -0.2767043449    0.0064054129
F235       F    0.0912553356   -0.3012672380    0.0127104750
H235       H    0.0817197941   -0.2031905576    0.0113834061
H236       H   -0.0817373690   -0.2032635406   -0.0113877690
H237       H   -0.0818256396   -0.2963579215   -0.0113995821
C225       C   -0.0000000000    0.1958840849    0.0000000000
C225       C    0.0086689611    0.2234091435   -0.0454067089
C226       C    0.0086681562    0.2768372894   -0.0453986544
C226       C   -0.0000000000    0.3041159151    0.0000000000
C227       C   -0.0086756212    0.2767853996    0.0454370522
C228       C   -0.0087046665    0.2232956551    0.0455988298
F225       F   -0.0172739268    0.1987327620    0.0905025077
H225       H   -0.0154700078    0.2968094424    0.0810455769
H226       H    0.0154752472    0.2967364594   -0.0810629108
H227       H    0.0154914751    0.2036420785   -0.0811504773
C215       C   -0.1958840849   -0.0000000000    0.0000000000
C215       C   -0.2234091435    0.0224484948    0.0404102113
C216       C   -0.2768372894    0.0224439502    0.0404035129
C216       C   -0.3041159151   -0.0000000000    0.0000000000
C217       C   -0.2767853996   -0.0224628306   -0.0404377714
C218       C   -0.2232956551   -0.0225442245   -0.0405805673
F215       F   -0.1987327620   -0.0447468390   -0.0805407527
H215       H   -0.2968094424   -0.0400702409   -0.0721254635
H216       H   -0.2967364594    0.0400773290    0.0721421269
H217       H   -0.2036420785    0.0401209970    0.0722197436
C205       C    0.3041159151   -0.0000000000    0.0000000000
C205       C    0.2765908565    0.0392303422   -0.0244520010
C206       C    0.2231627106    0.0392238807   -0.0244471253
C206       C    0.1958840849   -0.0000000000    0.0000000000
C207       C    0.2232146004   -0.0392571465    0.0244677044
C208       C    0.2767043449   -0.0393956692    0.0245561754
F205       F    0.3012672380   -0.0781889180    0.0487399789
H205       H    0.2031905576   -0.0700194218    0.0436461597
H206       H    0.2032635406    0.0700357078   -0.0436540767
H207       H    0.2963579215    0.0701110306   -0.0437015922
C195       C    0.0000000000    0.0000000000   -0.3041159151
C195       C   -0.0453912038   -0.0087497838   -0.2765908565
C196       C   -0.0453834233   -0.0087475509   -0.2231627106
C196       C    0.0000000000   -0.0000000000   -0.1958840849
C197       C    0.0454218576    0.0087548254   -0.2232146004
C198       C    0.0455828987    0.0087877099   -0.2767043449
F195       F    0.0904698877    0.0174439636   -0.3012672380
H195       H    0.0810167709    0.0156201638   -0.2031905576
H196       H   -0.0810348130   -0.0156217110   -0.2032635406
H197       H   -0.0811221683   -0.0156390402   -0.2963579215
C185       C   -0.0000000000    0.0000000000    0.1958840849
C185       C   -0.0055869657   -0.0458879713    0.2234091435
C186       C   -0.0055867059   -0.0458798809    0.2768372894
C186       C   -0.0000000000    0.0000000000    0.3041159151
C187       C    0.0055915643    0.0459186947    0.2767853996
C188       C    0.0056096331    0.0460820629    0.2232956551
F185       F    0.0111310498    0.0914614245    0.1987327620
H185       H    0.0099690195    0.0819043670    0.2968094424
H186       H   -0.0099730779   -0.0819220147    0.2967364594
H187       H   -0.0099833633   -0.0820104763    0.2036420785
loop_
_geom_bond_atom_site_label_1
_geom_bond_atom_site_label_2
_geom_bond_distance
_geom_bond_site_symmetry_2
_ccdc_geom_bond_type
Zn1          O5 1.942       .   S
Zn1          O6 1.922       .   S
Zn1         O10 1.922       .   S
Zn1         O17 1.922       .   S
Zn2          O5 1.942       .   S
Zn2          O7 1.922       .   S
Zn2          O9 1.922       .   S
Zn2         O13 1.922       .   S
Zn3          O5 1.942       .   S
Zn3          O8 1.922       .   S
Zn3         O11 1.922       .   S
Zn3         O14 1.922       .   S
Zn4          O5 1.942       .   S
Zn4         O12 1.922       .   S
Zn4         O15 1.922       .   S
Zn4         O16 1.922       .   S
O6          C18 1.304       .   A
O7          C19 1.304       .   A
O8          C20 1.304       .   A
O9          C18 1.304       .   A
O10         C20 1.304       .   A
O11         C19 1.304       .   A
O12         C21 1.304       .   A
O13         C22 1.304       .   A
O14         C21 1.304       .   A
O15         C22 1.304       .   A
O16         C23 1.304       .   A
O17         C23 1.304       .   A
Zn24        O28 1.942       .   S
Zn24        O29 1.922       .   S
Zn24        O33 1.922       .   S
Zn24        O40 1.922       .   S
Zn25        O28 1.942       .   S
Zn25        O30 1.922       .   S
Zn25        O32 1.922       .   S
Zn25        O36 1.922       .   S
Zn26        O28 1.942       .   S
Zn26        O31 1.922       .   S
Zn26        O34 1.922       .   S
Zn26        O37 1.922       .   S
Zn27        O28 1.942       .   S
Zn27        O35 1.922       .   S
Zn27        O38 1.922       .   S
Zn27        O39 1.922       .   S
O29         C41 1.304       .   A
O30         C42 1.304       .   A
O31         C43 1.304       .   A
O32         C41 1.304       .   A
O33         C43 1.304       .   A
O34         C42 1.304       .   A
O35         C44 1.304       .   A
O36         C45 1.304       .   A
O37         C44 1.304       .   A
O38         C45 1.304       .   A
O39         C46 1.304       .   A
O40         C46 1.304       .   A
Zn47        O51 1.942       .   S
Zn47        O52 1.922       .   S
Zn47        O56 1.922       .   S
Zn47        O63 1.922       .   S
Zn48        O51 1.942       .   S
Zn48        O53 1.922       .   S
Zn48        O55 1.922       .   S
Zn48        O59 1.922       .   S
Zn49        O51 1.942       .   S
Zn49        O54 1.922       .   S
Zn49        O57 1.922       .   S
Zn49        O60 1.922       .   S
Zn50        O51 1.942       .   S
Zn50        O58 1.922       .   S
Zn50        O61 1.922       .   S
Zn50        O62 1.922       .   S
O52         C64 1.304       .   A
O53         C65 1.304       .   A
O54         C66 1.304       .   A
O55         C64 1.304       .   A
O56         C66 1.304       .   A
O57         C65 1.304       .   A
O58         C67 1.304       .   A
O59         C68 1.304       .   A
O60         C67 1.304       .   A
O61         C68 1.304       .   A
O62         C69 1.304       .   A
O63         C69 1.304       .   A
Zn70        O74 1.942       .   S
Zn70        O75 1.922       .   S
Zn70        O79 1.922       .   S
Zn70        O86 1.922       .   S
Zn71        O74 1.942       .   S
Zn71        O76 1.922       .   S
Zn71        O78 1.922       .   S
Zn71        O82 1.922       .   S
Zn72        O74 1.942       .   S
Zn72        O77 1.922       .   S
Zn72        O80 1.922       .   S
Zn72        O83 1.922       .   S
Zn73        O74 1.942       .   S
Zn73        O81 1.922       .   S
Zn73        O84 1.922       .   S
Zn73        O85 1.922       .   S
O75         C87 1.304       .   A
O76         C88 1.304       .   A
O77         C89 1.304       .   A
O78         C87 1.304       .   A
O79         C89 1.304       .   A
O80         C88 1.304       .   A
O81         C90 1.304       .   A
O82         C91 1.304       .   A
O83         C90 1.304       .   A
O84         C91 1.304       .   A
O85         C92 1.304       .   A
O86         C92 1.304       .   A
Zn93        O97 1.942       .   S
Zn93        O98 1.922       .   S
Zn93       O102 1.922       .   S
Zn93       O109 1.922       .   S
Zn94        O97 1.942       .   S
Zn94        O99 1.922       .   S
Zn94       O101 1.922       .   S
Zn94       O105 1.922       .   S
Zn95        O97 1.942       .   S
Zn95       O100 1.922       .   S
Zn95       O103 1.922       .   S
Zn95       O106 1.922       .   S
Zn96        O97 1.942       .   S
Zn96       O104 1.922       .   S
Zn96       O107 1.922       .   S
Zn96       O108 1.922       .   S
O98        C110 1.304       .   A
O99        C111 1.304       .   A
O100       C112 1.304       .   A
O101       C110 1.304       .   A
O102       C112 1.304       .   A
O103       C111 1.304       .   A
O104       C113 1.304       .   A
O105       C114 1.304       .   A
O106       C113 1.304       .   A
O107       C114 1.304       .   A
O108       C115 1.304       .   A
O109       C115 1.304       .   A
Zn116      O120 1.942       .   S
Zn116      O121 1.922       .   S
Zn116      O125 1.922       .   S
Zn116      O132 1.922       .   S
Zn117      O120 1.942       .   S
Zn117      O122 1.922       .   S
Zn117      O124 1.922       .   S
Zn117      O128 1.922       .   S
Zn118      O120 1.942       .   S
Zn118      O123 1.922       .   S
Zn118      O126 1.922       .   S
Zn118      O129 1.922       .   S
Zn119      O120 1.942       .   S
Zn119      O127 1.922       .   S
Zn119      O130 1.922       .   S
Zn119      O131 1.922       .   S
O121       C133 1.304       .   A
O122       C134 1.304       .   A
O123       C135 1.304       .   A
O124       C133 1.304       .   A
O125       C135 1.304       .   A
O126       C134 1.304       .   A
O127       C136 1.304       .   A
O128       C137 1.304       .   A
O129       C136 1.304       .   A
O130       C137 1.304       .   A
O131       C138 1.304       .   A
O132       C138 1.304       .   A
Zn139      O143 1.942       .   S
Zn139      O144 1.922       .   S
Zn139      O148 1.922       .   S
Zn139      O155 1.922       .   S
Zn140      O143 1.942       .   S
Zn140      O145 1.922       .   S
Zn140      O147 1.922       .   S
Zn140      O151 1.922       .   S
Zn141      O143 1.942       .   S
Zn141      O146 1.922       .   S
Zn141      O149 1.922       .   S
Zn141      O152 1.922       .   S
Zn142      O143 1.942       .   S
Zn142      O150 1.922       .   S
Zn142      O153 1.922       .   S
Zn142      O154 1.922       .   S
O144       C156 1.304       .   A
O145       C157 1.304       .   A
O146       C158 1.304       .   A
O147       C156 1.304       .   A
O148       C158 1.304       .   A
O149       C157 1.304       .   A
O150       C159 1.304       .   A
O151       C160 1.304       .   A
O152       C159 1.304       .   A
O153       C160 1.304       .   A
O154       C161 1.304       .   A
O155       C161 1.304       .   A
Zn162      O166 1.942       .   S
Zn162      O167 1.922       .   S
Zn162      O171 1.922       .   S
Zn162      O178 1.922       .   S
Zn163      O166 1.942       .   S
Zn163      O168 1.922       .   S
Zn163      O170 1.922       .   S
Zn163      O174 1.922       .   S
Zn164      O166 1.942       .   S
Zn164      O169 1.922       .   S
Zn164      O172 1.922       .   S
Zn164      O175 1.922       .   S
Zn165      O166 1.942       .   S
Zn165      O173 1.922       .   S
Zn165      O176 1.922       .   S
Zn165      O177 1.922       .   S
O167       C179 1.304       .   A
O168       C180 1.304       .   A
O169       C181 1.304       .   A
O170       C179 1.304       .   A
O171       C181 1.304       .   A
O172       C180 1.304       .   A
O173       C182 1.304       .   A
O174       C183 1.304       .   A
O175       C182 1.304       .   A
O176       C183 1.304       .   A
O177       C184 1.304       .   A
O178       C184 1.304       .   A
C185       C185 0.094       .   A
C185       C188 0.094       .   A
C185       C186 0.093       .   A
C185       H187 0.072       .   A
C186       C186 0.094       .   A
C186       H186 0.072       .   A
C186       C187 0.094       .   A
C187       C188 0.093       .   A
C187       H185 0.072       .   A
C188       F185 0.090       .   A
C195       C195 0.094       .   A
C195       C198 0.094       .   A
C195       C196 0.093       .   A
C195       H197 0.072       .   A
C196       C196 0.094       .   A
C196       H196 0.072       .   A
C196       C197 0.094       .   A
C197       C198 0.093       .   A
C197       H195 0.072       .   A
C198       F195 0.090       .   A
C205       C205 0.094       .   A
C205       C208 0.094       .   A
C205       C206 0.093       .   A
C205       H207 0.072       .   A
C206       C206 0.094       .   A
C206       H206 0.072       .   A
C206       C207 0.094       .   A
C207       C208 0.093       .   A
C207       H205 0.072       .   A
C208       F205 0.090       .   A
C215       C215 0.094       .   A
C215       C218 0.094       .   A
C215       C216 0.093       .   A
C215       H217 0.072       .   A
C216       C216 0.094       .   A
C216       H216 0.072       .   A
C216       C217 0.094       .   A
C217       C218 0.093       .   A
C217       H215 0.072       .   A
C218       F215 0.090       .   A
C225       C225 0.094       .   A
C225       C228 0.094       .   A
C225       C226 0.093       .   A
C225       H227 0.072       .   A
C226       C226 0.094       .   A
C226       H226 0.072       .   A
C226       C227 0.094       .   A
C227       C228 0.093       .   A
C227       H225 0.072       .   A
C228       F225 0.090       .   A
C235       C235 0.094       .   A
C235       C238 0.094       .   A
C235       C236 0.093       .   A
C235       H237 0.072       .   A
C236       C236 0.094       .   A
C236       H236 0.072       .   A
C236       C237 0.094       .   A
C237       C238 0.093       .   A
C237       H235 0.072       .   A
C238       F235 0.090       .   A
C245       C245 0.094       .   A
C245       C248 0.094       .   A
C245       C246 0.093       .   A
C245       H247 0.072       .   A
C246       C246 0.094       .   A
C246       H246 0.072       .   A
C246       C247 0.094       .   A
C247       C248 0.093       .   A
C247       H245 0.072       .   A
C248       F245 0.090       .   A
C255       C255 0.094       .   A
C255       C258 0.094       .   A
C255       C256 0.093       .   A
C255       H257 0.072       .   A
C256       C256 0.094       .   A
C256       H256 0.072       .   A
C256       C257 0.094       .   A
C257       C258 0.093       .   A
C257       H255 0.072       .   A
C258       F255 0.090       .   A
C265       C265 0.094       .   A
C265       C268 0.094       .   A
C265       C266 0.093       .   A
C265       H267 0.072       .   A
C266       C266 0.094       .   A
C266       H266 0.072       .   A
C266       C267 0.094       .   A
C267       C268 0.093       .   A
C267       H265 0.072       .   A
C268       F265 0.090       .   A
C275       C275 0.094       .   A
C275       C278 0.094       .   A
C275       C276 0.093       .   A
C275       H277 0.072       .   A
C276       C276 0.094       .   A
C276       H276 0.072       .   A
C276       C277 0.094       .   A
C277       C278 0.093       .   A
C277       H275 0.072       .   A
C278       F275 0.090       .   A
C285       C285 0.094       .   A
C285       C288 0.094       .   A
C285       C286 0.093       .   A
C285       H287 0.072       .   A
C286       C286 0.094       .   A
C286       H286 0.072       .   A
C286       C287 0.094       .   A
C287       C288 0.093       .   A
C287       H285 0.072       .   A
C288       F285 0.090       .   A
C295       C295 0.094       .   A
C295       C298 0.094       .   A
C295       C296 0.093       .   A
C295       H297 0.072       .   A
C296       C296 0.094       .   A
C296       H296 0.072       .   A
C296       C297 0.094       .   A
C297       C298 0.093       .   A
C297       H295 0.072       .   A
C298       F295 0.090       .   A
C305       C305 0.094       .   A
C305       C308 0.094       .   A
C305       C306 0.093       .   A
C305       H307 0.072       .   A
C306       C306 0.094       .   A
C306       H306 0.072       .   A
C306       C307 0.094       .   A
C307       C308 0.093       .   A
C307       H305 0.072       .   A
C308       F305 0.090       .   A
C315       C315 0.094       .   A
C315       C318 0.094       .   A
C315       C316 0.093       .   A
C315       H317 0.072       .   A
C316       C316 0.094       .   A
C316       H316 0.072       .   A
C316       C317 0.094       .   A
C317       C318 0.093       .   A
C317       H315 0.072       .   A
C318       F315 0.090       .   A
C325       C325 0.094       .   A
C325       C328 0.094       .   A
C325       C326 0.093       .   A
C325       H327 0.072       .   A
C326       C326 0.094       .   A
C326       H326 0.072       .   A
C326       C327 0.094       .   A
C327       C328 0.093       .   A
C327       H325 0.072       .   A
C328       F325 0.090       .   A
C335       C335 0.094       .   A
C335       C338 0.094       .   A
C335       C336 0.093       .   A
C335       H337 0.072       .   A
C336       C336 0.094       .   A
C336       H336 0.072       .   A
C336       C337 0.094       .   A
C337       C338 0.093       .   A
C337       H335 0.072       .   A
C338       F335 0.090       .   A
C345       C345 0.094       .   A
C345       C348 0.094       .   A
C345       C346 0.093       .   A
C345       H347 0.072       .   A
C346       C346 0.094       .   A
C346       H346 0.072       .   A
C346       C347 0.094       .   A
C347       C348 0.093       .   A
C347       H345 0.072       .   A
C348       F345 0.090       .   A
C355       C355 0.094       .   A
C355       C358 0.094       .   A
C355       C356 0.093       .   A
C355       H357 0.072       .   A
C356       C356 0.094       .   A
C356       H356 0.072       .   A
C356       C357 0.094       .   A
C357       C358 0.093       .   A
C357       H355 0.072       .   A
C358       F355 0.090       .   A
C365       C365 0.094       .   A
C365       C368 0.094       .   A
C365       C366 0.093       .   A
C365       H367 0.072       .   A
C366       C366 0.094       .   A
C366       H366 0.072       .   A
C366       C367 0.094       .   A
C367       C368 0.093       .   A
C367       H365 0.072       .   A
C368       F365 0.090       .   A
C375       C375 0.094       .   A
C375       C378 0.094       .   A
C375       C376 0.093       .   A
C375       H377 0.072       .   A
C376       C376 0.094       .   A
C376       H376 0.072       .   A
C376       C377 0.094       .   A
C377       C378 0.093       .   A
C377       H375 0.072       .   A
C378       F375 0.090       .   A
C385       C385 0.094       .   A
C385       C388 0.094       .   A
C385       C386 0.093       .   A
C385       H387 0.072       .   A
C386       C386 0.094       .   A
C386       H386 0.072       .   A
C386       C387 0.094       .   A
C387       C388 0.093       .   A
C387       H385 0.072       .   A
C388       F385 0.090       .   A
C395       C395 0.094       .   A
C395       C398 0.094       .   A
C395       C396 0.093       .   A
C395       H397 0.072       .   A
C396       C396 0.094       .   A
C396       H396 0.072       .   A
C396       C397 0.094       .   A
C397       C398 0.093       .   A
C397       H395 0.072       .   A
C398       F395 0.090       .   A
C405       C405 0.094       .   A
C405       C408 0.094       .   A
C405       C406 0.093       .   A
C405       H407 0.072       .   A
C406       C406 0.094       .   A
C406       H406 0.072       .   A
C406       C407 0.094       .   A
C407       C408 0.093       .   A
C407       H405 0.072       .   A
C408       F405 0.090       .   A
C415       C415 0.094       .   A
C415       C418 0.094       .   A
C415       C416 0.093       .   A
C415       H417 0.072       .   A
C416       C416 0.094       .   A
C416       H416 0.072       .   A
C416       C417 0.094       .   A
C417       C418 0.093       .   A
C417       H415 0.072       .   A
C418       F415 0.090       .   A
C18        C225 1.540       .   S
C19        C206 1.540       .   S
C20        C185 1.540       .   S
C21        C236 1.540       .   S
C22        C196 1.540       .   S
C23        C215 1.540       .   S
C41        C186 1.540   1_655   S
C42        C245 1.540       .   S
C43        C265 1.540       .   S
C44        C195 1.540   1_656   S
C45        C275 1.540       .   S
C46        C256 1.540       .   S
C64        C226 1.540   1_655   S
C65        C285 1.540       .   S
C66        C306 1.540       .   S
C67        C235 1.540   1_665   S
C68        C316 1.540       .   S
C69        C295 1.540       .   S
C87        C266 1.540       .   S
C88        C286 1.540       .   S
C89        C335 1.540       .   S
C90        C276 1.540   1_565   S
C91        C325 1.540       .   S
C92        C296 1.540   1_556   S
C110       C205 1.540   1_565   S
C111       C376 1.540       .   S
C112       C355 1.540       .   S
C113       C216 1.540   1_665   S
C114       C345 1.540       .   S
C115       C365 1.540       .   S
C133       C246 1.540   1_465   S
C134       C395 1.540       .   S
C135       C346 1.540       .   S
C136       C255 1.540   1_565   S
C137       C356 1.540   1_556   S
C138       C385 1.540       .   S
C156       C305 1.540   1_455   S
C157       C366 1.540   1_545   S
C158       C415 1.540       .   S
C159       C315 1.540       .   S
C160       C405 1.540       .   S
C161       C375 1.540       .   S
C179       C326 1.540   1_455   S
C180       C386 1.540   1_545   S
C181       C406 1.540       .   S
C182       C336 1.540       .   S
C183       C416 1.540   1_556   S
C184       C396 1.540       .   S
