data_pcu_v1-6c_Zn_1_Ch_tobacco_crystal_4_BOND_CHECK
_audit_creation_date              2020-10-28
_audit_creation_method            'tobacco_3.0'
_symmetry_space_group_name_H-M    'P1'
_symmetry_Int_Tables_number       1
_symmetry_cell_setting            triclinic
loop_
_symmetry_equiv_pos_as_xyz
  x,y,z
_cell_length_a                    33.45963359238501
_cell_length_b                    33.45963359238501
_cell_length_c                    33.45963359238501
_cell_angle_alpha                 90.0
_cell_angle_beta                  90.0
_cell_angle_gamma                 90.0
loop_
_atom_site_label
_atom_site_type_symbol
_atom_site_fract_x
_atom_site_fract_y
_atom_site_fract_z
Zn1       Zn   -0.0335090340   -0.0335090340    0.0335090340
Zn2       Zn    0.0335090340    0.0335090340    0.0335090340
Zn3       Zn    0.0335090340   -0.0335090340   -0.0335090340
Zn4       Zn   -0.0335090340    0.0335090340   -0.0335090340
O5         O    0.0000000000    0.0000000000    0.0000000000
O6         O   -0.0246266893   -0.0246266893    0.0895586615
O7         O    0.0895586615    0.0246266893    0.0246266893
O8         O    0.0246266893   -0.0895586615   -0.0246266893
O9         O    0.0246266893    0.0246266893    0.0895586615
O10        O   -0.0246266893   -0.0895586615    0.0246266893
O11        O    0.0895586615   -0.0246266893   -0.0246266893
O12        O   -0.0246266893    0.0246266893   -0.0895586615
O13        O    0.0246266893    0.0895586615    0.0246266893
O14        O    0.0246266893   -0.0246266893   -0.0895586615
O15        O   -0.0246266893    0.0895586615   -0.0246266893
O16        O   -0.0895586615    0.0246266893   -0.0246266893
O17        O   -0.0895586615   -0.0246266893    0.0246266893
C18        C   -0.0000000000   -0.0000000000    0.1070782796
C19        C    0.1070782796   -0.0000000000   -0.0000000000
C20        C   -0.0000000000   -0.1070782796    0.0000000000
C21        C    0.0000000000    0.0000000000   -0.1070782796
C22        C    0.0000000000    0.1070782796   -0.0000000000
C23        C   -0.1070782796    0.0000000000    0.0000000000
Zn24      Zn    0.9664909660    0.0335090340    0.5335090340
Zn25      Zn    0.9664909660   -0.0335090340    0.4664909660
Zn26      Zn    1.0335090340    0.0335090340    0.4664909660
Zn27      Zn    1.0335090340   -0.0335090340    0.5335090340
O28        O    1.0000000000    0.0000000000    0.5000000000
O29        O    0.9104413385    0.0246266893    0.5246266893
O30        O    0.9753733107   -0.0246266893    0.4104413385
O31        O    1.0246266893    0.0895586615    0.4753733107
O32        O    0.9104413385   -0.0246266893    0.4753733107
O33        O    0.9753733107    0.0895586615    0.5246266893
O34        O    1.0246266893    0.0246266893    0.4104413385
O35        O    1.0895586615   -0.0246266893    0.5246266893
O36        O    0.9753733107   -0.0895586615    0.4753733107
O37        O    1.0895586615    0.0246266893    0.4753733107
O38        O    1.0246266893   -0.0895586615    0.5246266893
O39        O    1.0246266893   -0.0246266893    0.5895586615
O40        O    0.9753733107    0.0246266893    0.5895586615
C41        C    0.8929217204    0.0000000000    0.5000000000
C42        C    1.0000000000    0.0000000000    0.3929217204
C43        C    1.0000000000    0.1070782796    0.5000000000
C44        C    1.1070782796    0.0000000000    0.5000000000
C45        C    1.0000000000   -0.1070782796    0.5000000000
C46        C    1.0000000000    0.0000000000    0.6070782796
Zn47      Zn    1.0335090340    0.4664909660   -0.0335090340
Zn48      Zn    0.9664909660    0.4664909660    0.0335090340
Zn49      Zn    1.0335090340    0.5335090340    0.0335090340
Zn50      Zn    0.9664909660    0.5335090340   -0.0335090340
O51        O    1.0000000000    0.5000000000    0.0000000000
O52        O    1.0246266893    0.4104413385   -0.0246266893
O53        O    0.9753733107    0.4753733107    0.0895586615
O54        O    1.0895586615    0.5246266893    0.0246266893
O55        O    0.9753733107    0.4104413385    0.0246266893
O56        O    1.0895586615    0.4753733107   -0.0246266893
O57        O    1.0246266893    0.5246266893    0.0895586615
O58        O    0.9753733107    0.5895586615   -0.0246266893
O59        O    0.9104413385    0.4753733107    0.0246266893
O60        O    1.0246266893    0.5895586615    0.0246266893
O61        O    0.9104413385    0.5246266893   -0.0246266893
O62        O    0.9753733107    0.5246266893   -0.0895586615
O63        O    1.0246266893    0.4753733107   -0.0895586615
C64        C    1.0000000000    0.3929217204    0.0000000000
C65        C    1.0000000000    0.5000000000    0.1070782796
C66        C    1.1070782796    0.5000000000    0.0000000000
C67        C    1.0000000000    0.6070782796    0.0000000000
C68        C    0.8929217204    0.5000000000    0.0000000000
C69        C    1.0000000000    0.5000000000   -0.1070782796
Zn70      Zn    0.9664909660    0.4664909660    0.5335090340
Zn71      Zn    1.0335090340    0.4664909660    0.4664909660
Zn72      Zn    0.9664909660    0.5335090340    0.4664909660
Zn73      Zn    1.0335090340    0.5335090340    0.5335090340
O74        O    1.0000000000    0.5000000000    0.5000000000
O75        O    0.9753733107    0.4104413385    0.5246266893
O76        O    1.0246266893    0.4753733107    0.4104413385
O77        O    0.9104413385    0.5246266893    0.4753733107
O78        O    1.0246266893    0.4104413385    0.4753733107
O79        O    0.9104413385    0.4753733107    0.5246266893
O80        O    0.9753733107    0.5246266893    0.4104413385
O81        O    1.0246266893    0.5895586615    0.5246266893
O82        O    1.0895586615    0.4753733107    0.4753733107
O83        O    0.9753733107    0.5895586615    0.4753733107
O84        O    1.0895586615    0.5246266893    0.5246266893
O85        O    1.0246266893    0.5246266893    0.5895586615
O86        O    0.9753733107    0.4753733107    0.5895586615
C87        C    1.0000000000    0.3929217204    0.5000000000
C88        C    1.0000000000    0.5000000000    0.3929217204
C89        C    0.8929217204    0.5000000000    0.5000000000
C90        C    1.0000000000    0.6070782796    0.5000000000
C91        C    1.1070782796    0.5000000000    0.5000000000
C92        C    1.0000000000    0.5000000000    0.6070782796
Zn93      Zn    0.4664909660    0.9664909660   -0.0335090340
Zn94      Zn    0.4664909660    1.0335090340    0.0335090340
Zn95      Zn    0.5335090340    0.9664909660    0.0335090340
Zn96      Zn    0.5335090340    1.0335090340   -0.0335090340
O97        O    0.5000000000    1.0000000000    0.0000000000
O98        O    0.4104413385    0.9753733107   -0.0246266893
O99        O    0.4753733107    1.0246266893    0.0895586615
O100       O    0.5246266893    0.9104413385    0.0246266893
O101       O    0.4104413385    1.0246266893    0.0246266893
O102       O    0.4753733107    0.9104413385   -0.0246266893
O103       O    0.5246266893    0.9753733107    0.0895586615
O104       O    0.5895586615    1.0246266893   -0.0246266893
O105       O    0.4753733107    1.0895586615    0.0246266893
O106       O    0.5895586615    0.9753733107    0.0246266893
O107       O    0.5246266893    1.0895586615   -0.0246266893
O108       O    0.5246266893    1.0246266893   -0.0895586615
O109       O    0.4753733107    0.9753733107   -0.0895586615
C110       C    0.3929217204    1.0000000000    0.0000000000
C111       C    0.5000000000    1.0000000000    0.1070782796
C112       C    0.5000000000    0.8929217204    0.0000000000
C113       C    0.6070782796    1.0000000000    0.0000000000
C114       C    0.5000000000    1.1070782796    0.0000000000
C115       C    0.5000000000    1.0000000000   -0.1070782796
Zn116     Zn    0.4664909660    1.0335090340    0.5335090340
Zn117     Zn    0.4664909660    0.9664909660    0.4664909660
Zn118     Zn    0.5335090340    1.0335090340    0.4664909660
Zn119     Zn    0.5335090340    0.9664909660    0.5335090340
O120       O    0.5000000000    1.0000000000    0.5000000000
O121       O    0.4104413385    1.0246266893    0.5246266893
O122       O    0.4753733107    0.9753733107    0.4104413385
O123       O    0.5246266893    1.0895586615    0.4753733107
O124       O    0.4104413385    0.9753733107    0.4753733107
O125       O    0.4753733107    1.0895586615    0.5246266893
O126       O    0.5246266893    1.0246266893    0.4104413385
O127       O    0.5895586615    0.9753733107    0.5246266893
O128       O    0.4753733107    0.9104413385    0.4753733107
O129       O    0.5895586615    1.0246266893    0.4753733107
O130       O    0.5246266893    0.9104413385    0.5246266893
O131       O    0.5246266893    0.9753733107    0.5895586615
O132       O    0.4753733107    1.0246266893    0.5895586615
C133       C    0.3929217204    1.0000000000    0.5000000000
C134       C    0.5000000000    1.0000000000    0.3929217204
C135       C    0.5000000000    1.1070782796    0.5000000000
C136       C    0.6070782796    1.0000000000    0.5000000000
C137       C    0.5000000000    0.8929217204    0.5000000000
C138       C    0.5000000000    1.0000000000    0.6070782796
Zn139     Zn    0.4664909660    0.5335090340   -0.0335090340
Zn140     Zn    0.4664909660    0.4664909660    0.0335090340
Zn141     Zn    0.5335090340    0.4664909660   -0.0335090340
Zn142     Zn    0.5335090340    0.5335090340    0.0335090340
O143       O    0.5000000000    0.5000000000    0.0000000000
O144       O    0.4104413385    0.5246266893   -0.0246266893
O145       O    0.4753733107    0.4104413385    0.0246266893
O146       O    0.5246266893    0.4753733107   -0.0895586615
O147       O    0.4104413385    0.4753733107    0.0246266893
O148       O    0.4753733107    0.5246266893   -0.0895586615
O149       O    0.5246266893    0.4104413385   -0.0246266893
O150       O    0.5895586615    0.5246266893    0.0246266893
O151       O    0.4753733107    0.4753733107    0.0895586615
O152       O    0.5895586615    0.4753733107   -0.0246266893
O153       O    0.5246266893    0.5246266893    0.0895586615
O154       O    0.5246266893    0.5895586615    0.0246266893
O155       O    0.4753733107    0.5895586615   -0.0246266893
C156       C    0.3929217204    0.5000000000    0.0000000000
C157       C    0.5000000000    0.3929217204    0.0000000000
C158       C    0.5000000000    0.5000000000   -0.1070782796
C159       C    0.6070782796    0.5000000000    0.0000000000
C160       C    0.5000000000    0.5000000000    0.1070782796
C161       C    0.5000000000    0.6070782796    0.0000000000
Zn162     Zn    0.4664909660    0.4664909660    0.4664909660
Zn163     Zn    0.5335090340    0.4664909660    0.5335090340
Zn164     Zn    0.5335090340    0.5335090340    0.4664909660
Zn165     Zn    0.4664909660    0.5335090340    0.5335090340
O166       O    0.5000000000    0.5000000000    0.5000000000
O167       O    0.4753733107    0.4104413385    0.4753733107
O168       O    0.5895586615    0.4753733107    0.5246266893
O169       O    0.5246266893    0.5246266893    0.4104413385
O170       O    0.5246266893    0.4104413385    0.5246266893
O171       O    0.4753733107    0.4753733107    0.4104413385
O172       O    0.5895586615    0.5246266893    0.4753733107
O173       O    0.4753733107    0.5895586615    0.5246266893
O174       O    0.5246266893    0.4753733107    0.5895586615
O175       O    0.5246266893    0.5895586615    0.4753733107
O176       O    0.4753733107    0.5246266893    0.5895586615
O177       O    0.4104413385    0.5246266893    0.5246266893
O178       O    0.4104413385    0.4753733107    0.4753733107
C179       C    0.5000000000    0.3929217204    0.5000000000
C180       C    0.6070782796    0.5000000000    0.5000000000
C181       C    0.5000000000    0.5000000000    0.3929217204
C182       C    0.5000000000    0.6070782796    0.5000000000
C183       C    0.5000000000    0.5000000000    0.6070782796
C184       C    0.3929217204    0.5000000000    0.5000000000
C668       C    0.5000000000    0.5000000000   -0.3468961118
C668       C    0.4833540260    0.5099728636   -0.3062057487
C669       C    0.5106789709    0.4835460090   -0.2818291573
N668       N    0.5502169807    0.4907629859   -0.2997271878
N669       N    0.5433940266    0.4993402747   -0.3406641395
C670       C    0.5079746789    0.4900063997   -0.2368165691
H668       H    0.5565487462    0.4769916332   -0.3581269246
H669       H    0.5620943553    0.5173318667   -0.2883258111
H670       H    0.4508632701    0.5040496572   -0.3028512411
H671       H    0.5024237474    0.4517623213   -0.2875938460
H672       H    0.4898953368    0.5418107169   -0.2989020549
H673       H    0.4899171442    0.4694111062   -0.3556420977
C671       C    0.5413864403    0.4995083775   -0.2129590853
C672       C    0.5373740367    0.5044063660   -0.1716576970
C669       C    0.5000000000    0.5000000000   -0.1531038882
C673       C    0.4666513664    0.4904844623   -0.1767626470
C674       C    0.4706575713    0.4854477251   -0.2180234759
H674       H    0.5637022119    0.5115295967   -0.1542193741
H675       H    0.5709124618    0.5028401667   -0.2255683672
H676       H    0.4444099107    0.4778952967   -0.2353685218
H677       H    0.4374163911    0.4867784702   -0.1633736252
C647       C    0.5000000000    0.5000000000    0.1531038882
C647       C    0.5166459740    0.4900271364    0.1937942513
C648       C    0.4893210291    0.5164539910    0.2181708427
N647       N    0.4497830193    0.5092370141    0.2002728122
N648       N    0.4566059734    0.5006597253    0.1593358605
C649       C    0.4920253211    0.5099936003    0.2631834309
H647       H    0.4434512538    0.5230083668    0.1418730754
H648       H    0.4379056447    0.4826681333    0.2116741889
H649       H    0.5491367299    0.4959503428    0.1971487589
H650       H    0.4975762526    0.5482376787    0.2124061540
H651       H    0.5101046632    0.4581892831    0.2010979451
H652       H    0.5100828558    0.5305888938    0.1443579023
C650       C    0.4586135597    0.5004916225    0.2870409147
C651       C    0.4626259633    0.4955936340    0.3283423030
C648       C    0.5000000000    0.5000000000    0.3468961118
C652       C    0.5333486336    0.5095155377    0.3232373530
C653       C    0.5293424287    0.5145522749    0.2819765241
H653       H    0.4362977881    0.4884704033    0.3457806259
H654       H    0.4290875382    0.4971598333    0.2744316328
H655       H    0.5555900893    0.5221047033    0.2646314782
H656       H    0.5625836089    0.5132215298    0.3366263748
C626       C    0.5000000000    0.8468961118    0.5000000000
C626       C    0.4845362719    0.8062057487    0.5117226094
C627       C    0.5088278000    0.7818291573    0.4824830315
N626       N    0.5489159091    0.7997271878    0.4853609625
N627       N    0.5430653884    0.8406641395    0.4946288637
C628       C    0.5068415253    0.7368165691    0.4891990241
H626       H    0.5537137480    0.8581269246    0.4709831271
H627       H    0.5636100034    0.7883258111    0.5104818909
H628       H    0.4515942723    0.8028512411    0.5093650136
H629       H    0.4971677532    0.7875938460    0.4517845816
H630       H    0.4944984404    0.7989020549    0.5426611429
H631       H    0.4866529726    0.8556420977    0.4706878649
C629       C    0.5410879562    0.7129590853    0.4950141210
C630       C    0.5376315407    0.6716576970    0.5003191060
C627       C    0.5000000000    0.6531038882    0.5000000000
C631       C    0.4658148496    0.6767626470    0.4941645636
C632       C    0.4692500264    0.7180234759    0.4887223252
H632       H    0.5645778483    0.6542193741    0.5045392639
H633       H    0.5708011858    0.7255683672    0.4951178008
H634       H    0.4423371188    0.7353685218    0.4840667621
H635       H    0.4363502809    0.6633736252    0.4936572710
C605       C    0.5000000000    1.1531038882    0.5000000000
C605       C    0.5166459740    1.1937942513    0.5099728636
C606       C    0.4893210291    1.2181708427    0.4835460090
N605       N    0.4497830193    1.2002728122    0.4907629859
N606       N    0.4566059734    1.1593358605    0.4993402747
C607       C    0.4920253211    1.2631834309    0.4900063997
H605       H    0.4434512538    1.1418730754    0.4769916332
H606       H    0.4379056447    1.2116741889    0.5173318667
H607       H    0.5491367299    1.1971487589    0.5040496572
H608       H    0.4975762526    1.2124061540    0.4517623213
H609       H    0.5101046632    1.2010979451    0.5418107169
H610       H    0.5100828558    1.1443579023    0.4694111062
C608       C    0.4586135597    1.2870409147    0.4995083775
C609       C    0.4626259633    1.3283423030    0.5044063660
C606       C    0.5000000000    1.3468961118    0.5000000000
C610       C    0.5333486336    1.3232373530    0.4904844623
C611       C    0.5293424287    1.2819765241    0.4854477251
H611       H    0.4362977881    1.3457806259    0.5115295967
H612       H    0.4290875382    1.2744316328    0.5028401667
H613       H    0.5555900893    1.2646314782    0.4778952967
H614       H    0.5625836089    1.3366263748    0.4867784702
C584       C    0.5000000000    0.8468961118    0.0000000000
C584       C    0.4946367481    0.8062057487    0.0186489138
C585       C    0.4965788081    0.7818291573   -0.0193150119
N584       N    0.5304061474    0.7997271878   -0.0410187004
N585       N    0.5312713394    0.8406641395   -0.0300928582
C586       C    0.4990102892    0.7368165691   -0.0127470790
H584       H    0.5256376404    0.8581269246   -0.0554062906
H585       H    0.5572183302    0.7883258111   -0.0297012669
H586       H    0.4668438539    0.8028512411    0.0364895591
H587       H    0.4688560528    0.7875938460   -0.0369161584
H588       H    0.5211435750    0.7989020549    0.0374591711
H589       H    0.4717565116    0.8556420977   -0.0154806255
C587       C    0.5299184792    0.7129590853   -0.0286000654
C588       C    0.5303275867    0.6716576970   -0.0222816554
C585       C    0.5000000000    0.6531038882    0.0000000000
C589       C    0.4691287043    0.6767626470    0.0157999976
C590       C    0.4686203881    0.7180234759    0.0093843906
H590       H    0.5544344216    0.6542193741   -0.0350399364
H591       H    0.5537758258    0.7255683672   -0.0463120324
H592       H    0.4442795405    0.7353685218    0.0217739830
H593       H    0.4452287726    0.6633736252    0.0330398184
C563       C    0.5000000000    1.1531038882    0.0000000000
C563       C    0.5182106421    1.1937942513   -0.0067021618
C564       C    0.4804876729    1.2181708427   -0.0020108030
N563       N    0.4612954771    1.2002728122    0.0333020644
N564       N    0.4722552973    1.1593358605    0.0333722677
C565       C    0.4872147087    1.2631834309   -0.0000622568
H563       H    0.4465998331    1.1418730754    0.0295899953
H564       H    0.4745284025    1.2116741889    0.0592224644
H565       H    0.5339877959    1.1971487589   -0.0357162103
H566       H    0.4609215299    1.2124061540   -0.0283834701
H567       H    0.5388944894    1.2010979451    0.0183700562
H568       H    0.4825110084    1.1443579023   -0.0270458791
C566       C    0.4736460010    1.2870409147    0.0319146655
C567       C    0.4799774412    1.3283423030    0.0318642719
C564       C    0.5000000000    1.3468961118    0.0000000000
C568       C    0.5135185353    1.3232373530   -0.0319362807
C569       C    0.5070829564    1.2819765241   -0.0319777822
H569       H    0.4690018205    1.3457806259    0.0568332321
H570       H    0.4577116484    1.2744316328    0.0569942024
H571       H    0.5176738816    1.2646314782   -0.0571533887
H572       H    0.5289788963    1.3366263748   -0.0570240346
C542       C    0.5000000000    1.0000000000   -0.1531038882
C542       C    0.5099728636    0.9833540260   -0.1937942513
C543       C    0.4835460090    1.0106789709   -0.2181708427
N542       N    0.4907629859    1.0502169807   -0.2002728122
N543       N    0.4993402747    1.0433940266   -0.1593358605
C544       C    0.4900063997    1.0079746789   -0.2631834309
H542       H    0.4769916332    1.0565487462   -0.1418730754
H543       H    0.5173318667    1.0620943553   -0.2116741889
H544       H    0.5040496572    0.9508632701   -0.1971487589
H545       H    0.4517623213    1.0024237474   -0.2124061540
H546       H    0.5418107169    0.9898953368   -0.2010979451
H547       H    0.4694111062    0.9899171442   -0.1443579023
C545       C    0.4995083775    1.0413864403   -0.2870409147
C546       C    0.5044063660    1.0373740367   -0.3283423030
C543       C    0.5000000000    1.0000000000   -0.3468961118
C547       C    0.4904844623    0.9666513664   -0.3232373530
C548       C    0.4854477251    0.9706575713   -0.2819765241
H548       H    0.5115295967    1.0637022119   -0.3457806259
H549       H    0.5028401667    1.0709124618   -0.2744316328
H550       H    0.4778952967    0.9444099107   -0.2646314782
H551       H    0.4867784702    0.9374163911   -0.3366263748
C521       C    0.5000000000    1.0000000000    0.1531038882
C521       C    0.5166459740    0.9900271364    0.1937942513
C522       C    0.4893210291    1.0164539910    0.2181708427
N521       N    0.4497830193    1.0092370141    0.2002728122
N522       N    0.4566059734    1.0006597253    0.1593358605
C523       C    0.4920253211    1.0099936003    0.2631834309
H521       H    0.4434512538    1.0230083668    0.1418730754
H522       H    0.4379056447    0.9826681333    0.2116741889
H523       H    0.5491367299    0.9959503428    0.1971487589
H524       H    0.4975762526    1.0482376787    0.2124061540
H525       H    0.5101046632    0.9581892831    0.2010979451
H526       H    0.5100828558    1.0305888938    0.1443579023
C524       C    0.4586135597    1.0004916225    0.2870409147
C525       C    0.4626259633    0.9955936340    0.3283423030
C522       C    0.5000000000    1.0000000000    0.3468961118
C526       C    0.5333486336    1.0095155377    0.3232373530
C527       C    0.5293424287    1.0145522749    0.2819765241
H527       H    0.4362977881    0.9884704033    0.3457806259
H528       H    0.4290875382    0.9971598333    0.2744316328
H529       H    0.5555900893    1.0221047033    0.2646314782
H530       H    0.5625836089    1.0132215298    0.3366263748
C500       C    0.8468961118    0.5000000000    0.5000000000
C500       C    0.8062057487    0.5186320952    0.4945786084
C501       C    0.7818291573    0.4806744114    0.4966390681
N500       N    0.7997271878    0.4590763357    0.5305339366
N501       N    0.8406641395    0.4700048234    0.5313650468
C502       C    0.7368165691    0.4872498961    0.4990500521
H500       H    0.8581269246    0.4446739426    0.5258103276
H501       H    0.7883258111    0.4704773413    0.5573106900
H502       H    0.8028512411    0.5363859678    0.4667302044
H503       H    0.7875938460    0.4629868834    0.4689713456
H504       H    0.7989020549    0.5375249356    0.5210266372
H505       H    0.8556420977    0.4844313586    0.4718049329
C503       C    0.7129590853    0.4714933893    0.5300075371
C504       C    0.6716576970    0.4778130446    0.5303969356
C501       C    0.6531038882    0.5000000000    0.5000000000
C505       C    0.6767626470    0.5157036334    0.4690795744
C506       C    0.7180234759    0.5092864721    0.4685912709
H506       H    0.6542193741    0.4651300147    0.5545434462
H507       H    0.7255683672    0.4538559194    0.5539200112
H508       H    0.7353685218    0.5216000852    0.4442118986
H509       H    0.6633736252    0.5328688265    0.4451259880
C479       C    1.1531038882    0.5000000000    0.5000000000
C479       C    1.1937942513    0.4945786084    0.5186320952
C480       C    1.2181708427    0.4966390681    0.4806744114
N479       N    1.2002728122    0.5305339366    0.4590763357
N480       N    1.1593358605    0.5313650468    0.4700048234
C481       C    1.2631834309    0.4990500521    0.4872498961
H479       H    1.1418730754    0.5258103276    0.4446739426
H480       H    1.2116741889    0.5573106900    0.4704773413
H481       H    1.1971487589    0.4667302044    0.5363859678
H482       H    1.2124061540    0.4689713456    0.4629868834
H483       H    1.2010979451    0.5210266372    0.5375249356
H484       H    1.1443579023    0.4718049329    0.4844313586
C482       C    1.2870409147    0.5300075371    0.4714933893
C483       C    1.3283423030    0.5303969356    0.4778130446
C480       C    1.3468961118    0.5000000000    0.5000000000
C484       C    1.3232373530    0.4690795744    0.5157036334
C485       C    1.2819765241    0.4685912709    0.5092864721
H485       H    1.3457806259    0.5545434462    0.4651300147
H486       H    1.2744316328    0.5539200112    0.4538559194
H487       H    1.2646314782    0.4442118986    0.5216000852
H488       H    1.3366263748    0.4451259880    0.5328688265
C458       C    0.8468961118    0.5000000000    0.0000000000
C458       C    0.8062057487    0.4906047416   -0.0169786801
C459       C    0.7818291573    0.5009818446    0.0195910750
N458       N    0.7997271878    0.5388039741    0.0331861293
N459       N    0.8406641395    0.5372055821    0.0223432639
C460       C    0.7368165691    0.5018840316    0.0126458679
H458       H    0.8581269246    0.5373714012    0.0482755012
H459       H    0.7883258111    0.5624088251    0.0161629551
H460       H    0.8028512411    0.4595277489   -0.0281569678
H461       H    0.7875938460    0.4778937320    0.0429425327
H462       H    0.7989020549    0.5122374668   -0.0412369334
H463       H    0.8556420977    0.4759304313    0.0214009407
C461       C    0.7129590853    0.5355533289    0.0211905625
C462       C    0.6716576970    0.5345400542    0.0149405266
C459       C    0.6531038882    0.5000000000    0.0000000000
C463       C    0.6767626470    0.4663785058   -0.0085012911
C464       C    0.7180234759    0.4673168025   -0.0021343454
H464       H    0.6542193741    0.5608884088    0.0219887489
H465       H    0.7255683672    0.5627655525    0.0331229408
H466       H    0.7353685218    0.4408227482   -0.0087709066
H467       H    0.6633736252    0.4392302892   -0.0199639474
C437       C    1.1531038882    0.5000000000    0.0000000000
C437       C    1.1937942513    0.5006341990    0.0193944386
C438       C    1.2181708427    0.4908024804   -0.0173256998
N437       N    1.2002728122    0.5163120520   -0.0483837219
N438       N    1.1593358605    0.5204966134   -0.0382539621
C439       C    1.2631834309    0.4951366562   -0.0118243578
H437       H    1.1418730754    0.5073484821   -0.0606064803
H438       H    1.2116741889    0.5453056406   -0.0458639455
H439       H    1.1971487589    0.4796779364    0.0449202814
H440       H    1.2124061540    0.4590093004   -0.0255442898
H441       H    1.2010979451    0.5316424061    0.0291375772
H442       H    1.1443579023    0.4683637201   -0.0060407116
C440       C    1.2870409147    0.5196686245   -0.0364173633
C441       C    1.3283423030    0.5220017467   -0.0305312598
C438       C    1.3468961118    0.5000000000    0.0000000000
C442       C    1.3232373530    0.4754868347    0.0245312362
C443       C    1.2819765241    0.4730294128    0.0185831713
H443       H    1.3457806259    0.5410143126   -0.0500872196
H444       H    1.2744316328    0.5369198025   -0.0606099989
H445       H    1.2646314782    0.4536807570    0.0378603178
H446       H    1.3366263748    0.4580498812    0.0482877260
C416       C    1.0000000000    0.5000000000   -0.3468961118
C416       C    1.0166459740    0.4900271364   -0.3062057487
C417       C    0.9893210291    0.5164539910   -0.2818291573
N416       N    0.9497830193    0.5092370141   -0.2997271878
N417       N    0.9566059734    0.5006597253   -0.3406641395
C418       C    0.9920253211    0.5099936003   -0.2368165691
H416       H    0.9434512538    0.5230083668   -0.3581269246
H417       H    0.9379056447    0.4826681333   -0.2883258111
H418       H    1.0491367299    0.4959503428   -0.3028512411
H419       H    0.9975762526    0.5482376787   -0.2875938460
H420       H    1.0101046632    0.4581892831   -0.2989020549
H421       H    1.0100828558    0.5305888938   -0.3556420977
C419       C    0.9586135597    0.5004916225   -0.2129590853
C420       C    0.9626259633    0.4955936340   -0.1716576970
C417       C    1.0000000000    0.5000000000   -0.1531038882
C421       C    1.0333486336    0.5095155377   -0.1767626470
C422       C    1.0293424287    0.5145522749   -0.2180234759
H422       H    0.9362977881    0.4884704033   -0.1542193741
H423       H    0.9290875382    0.4971598333   -0.2255683672
H424       H    1.0555900893    0.5221047033   -0.2353685218
H425       H    1.0625836089    0.5132215298   -0.1633736252
C395       C    1.0000000000    0.5000000000    0.3468961118
C395       C    0.9833540260    0.4900271364    0.3062057487
C396       C    1.0106789709    0.5164539910    0.2818291573
N395       N    1.0502169807    0.5092370141    0.2997271878
N396       N    1.0433940266    0.5006597253    0.3406641395
C397       C    1.0079746789    0.5099936003    0.2368165691
H395       H    1.0565487462    0.5230083668    0.3581269246
H396       H    1.0620943553    0.4826681333    0.2883258111
H397       H    0.9508632701    0.4959503428    0.3028512411
H398       H    1.0024237474    0.5482376787    0.2875938460
H399       H    0.9898953368    0.4581892831    0.2989020549
H400       H    0.9899171442    0.5305888938    0.3556420977
C398       C    1.0413864403    0.5004916225    0.2129590853
C399       C    1.0373740367    0.4955936340    0.1716576970
C396       C    1.0000000000    0.5000000000    0.1531038882
C400       C    0.9666513664    0.5095155377    0.1767626470
C401       C    0.9706575713    0.5145522749    0.2180234759
H401       H    1.0637022119    0.4884704033    0.1542193741
H402       H    1.0709124618    0.4971598333    0.2255683672
H403       H    0.9444099107    0.5221047033    0.2353685218
H404       H    0.9374163911    0.5132215298    0.1633736252
C374       C    1.0000000000   -0.3468961118    0.5000000000
C374       C    1.0166459740   -0.3062057487    0.5099728636
C375       C    0.9893210291   -0.2818291573    0.4835460090
N374       N    0.9497830193   -0.2997271878    0.4907629859
N375       N    0.9566059734   -0.3406641395    0.4993402747
C376       C    0.9920253211   -0.2368165691    0.4900063997
H374       H    0.9434512538   -0.3581269246    0.4769916332
H375       H    0.9379056447   -0.2883258111    0.5173318667
H376       H    1.0491367299   -0.3028512411    0.5040496572
H377       H    0.9975762526   -0.2875938460    0.4517623213
H378       H    1.0101046632   -0.2989020549    0.5418107169
H379       H    1.0100828558   -0.3556420977    0.4694111062
C377       C    0.9586135597   -0.2129590853    0.4995083775
C378       C    0.9626259633   -0.1716576970    0.5044063660
C375       C    1.0000000000   -0.1531038882    0.5000000000
C379       C    1.0333486336   -0.1767626470    0.4904844623
C380       C    1.0293424287   -0.2180234759    0.4854477251
H380       H    0.9362977881   -0.1542193741    0.5115295967
H381       H    0.9290875382   -0.2255683672    0.5028401667
H382       H    1.0555900893   -0.2353685218    0.4778952967
H383       H    1.0625836089   -0.1633736252    0.4867784702
C353       C    1.0000000000    0.3468961118    0.5000000000
C353       C    0.9833540260    0.3062057487    0.5099728636
C354       C    1.0106789709    0.2818291573    0.4835460090
N353       N    1.0502169807    0.2997271878    0.4907629859
N354       N    1.0433940266    0.3406641395    0.4993402747
C355       C    1.0079746789    0.2368165691    0.4900063997
H353       H    1.0565487462    0.3581269246    0.4769916332
H354       H    1.0620943553    0.2883258111    0.5173318667
H355       H    0.9508632701    0.3028512411    0.5040496572
H356       H    1.0024237474    0.2875938460    0.4517623213
H357       H    0.9898953368    0.2989020549    0.5418107169
H358       H    0.9899171442    0.3556420977    0.4694111062
C356       C    1.0413864403    0.2129590853    0.4995083775
C357       C    1.0373740367    0.1716576970    0.5044063660
C354       C    1.0000000000    0.1531038882    0.5000000000
C358       C    0.9666513664    0.1767626470    0.4904844623
C359       C    0.9706575713    0.2180234759    0.4854477251
H359       H    1.0637022119    0.1542193741    0.5115295967
H360       H    1.0709124618    0.2255683672    0.5028401667
H361       H    0.9444099107    0.2353685218    0.4778952967
H362       H    0.9374163911    0.1633736252    0.4867784702
C332       C    0.8468961118   -0.0000000000    0.5000000000
C332       C    0.8062057487    0.0062168702    0.4816180256
C333       C    0.7818291573   -0.0138157715    0.5139247512
N332       N    0.7997271878    0.0016199467    0.5510337472
N333       N    0.8406641395    0.0085556382    0.5425473599
C334       C    0.7368165691   -0.0080756162    0.5099122133
H332       H    0.8581269246   -0.0104958658    0.5601413538
H333       H    0.7883258111    0.0301030284    0.5570079841
H334       H    0.8028512411   -0.0064603378    0.4511217637
H335       H    0.7875938460   -0.0466271388    0.5125959567
H336       H    0.7989020549    0.0387177894    0.4812603882
H337       H    0.8556420977   -0.0320312294    0.4966318042
C335       C    0.7129590853    0.0082942724    0.5405497741
C336       C    0.6716576970    0.0122302012    0.5355901231
C333       C    0.6531038882   -0.0000000000    0.5000000000
C337       C    0.6767626470   -0.0163697560    0.4694270068
C338       C    0.7180234759   -0.0204425933    0.4744100175
H338       H    0.6542193741    0.0247735665    0.5598094792
H339       H    0.7255683672    0.0178103973    0.5686981334
H340       H    0.7353685218   -0.0333883281    0.4503603436
H341       H    0.6633736252   -0.0261898691    0.4416424152
C311       C    1.3468961118   -0.0000000000    0.5000000000
C311       C    1.3062057487   -0.0185481235    0.4942979325
C312       C    1.2818291573    0.0143044472    0.5134222587
N311       N    1.2997271878    0.0509687621    0.4969581463
N312       N    1.3406641395    0.0422923439    0.4902617029
C313       C    1.2368165691    0.0101334649    0.5077961810
H311       H    1.3581269246    0.0604105511    0.5088153815
H312       H    1.2883258111    0.0561467279    0.4683196037
H313       H    1.3028512411   -0.0486791656    0.5078202804
H314       H    1.2875938460    0.0138907671    0.5462579159
H315       H    1.2989020549   -0.0198115665    0.4618196110
H316       H    1.3556420977   -0.0024740348    0.5321126697
C314       C    1.2129590853    0.0403028197    0.4905786487
C315       C    1.1716576970    0.0352353841    0.4867824967
C312       C    1.1531038882   -0.0000000000    0.5000000000
C316       C    1.1767626470   -0.0301048159    0.5172156000
C317       C    1.2180234759   -0.0250102135    0.5211479561
H317       H    1.1542193741    0.0590956902    0.4735689047
H318       H    1.2255683672    0.0681749849    0.4802816020
H319       H    1.2353685218   -0.0486896875    0.5347590315
H320       H    1.1633736252   -0.0576048814    0.5278063768
C290       C    0.0000000000   -0.3468961118    0.0000000000
C290       C    0.0162764132   -0.3062057487    0.0105652652
C291       C   -0.0100801070   -0.2818291573   -0.0168275275
N290       N   -0.0498521608   -0.2997271878   -0.0110376468
N291       N   -0.0433422011   -0.3406641395   -0.0022204471
C292       C   -0.0076099854   -0.2368165691   -0.0102740290
H290       H   -0.0556843875   -0.3581269246   -0.0250278770
H291       H   -0.0626776919   -0.2883258111    0.0150867327
H292       H    0.0489592303   -0.3028512411    0.0058147847
H293       H   -0.0006867736   -0.2875938460   -0.0482936490
H294       H    0.0085939344   -0.2989020549    0.0421471773
H295       H    0.0111767985   -0.3556420977   -0.0302063500
C293       C   -0.0413419622   -0.2129590853   -0.0019802280
C294       C   -0.0375083666   -0.1716576970    0.0030589405
C291       C   -0.0000000000   -0.1531038882    0.0000000000
C295       C    0.0336693775   -0.1767626470   -0.0083096233
C296       C    0.0298469684   -0.2180234759   -0.0134872276
H296       H   -0.0640757645   -0.1542193741    0.0092303743
H297       H   -0.0709687348   -0.2255683672    0.0002871726
H298       H    0.0563493446   -0.2353685218   -0.0200904779
H299       H    0.0630187547   -0.1633736252   -0.0109614552
C269       C    0.0000000000    0.3468961118    0.0000000000
C269       C    0.0095265912    0.3062057487   -0.0169053399
C270       C   -0.0011336808    0.2818291573    0.0195828753
N269       N   -0.0390600599    0.2997271878    0.0328843322
N270       N   -0.0373776644    0.3406641395    0.0220541830
C271       C   -0.0019820030    0.2368165691    0.0126308833
H269       H   -0.0377444995    0.3581269246    0.0479843557
H270       H   -0.0625322417    0.2883258111    0.0156786898
H271       H    0.0406893018    0.3028512411   -0.0278423897
H272       H    0.0217727226    0.2875938460    0.0431126054
H273       H   -0.0119174393    0.2989020549   -0.0413305566
H274       H    0.0239029501    0.3556420977    0.0215868798
C272       C   -0.0357165253    0.2129590853    0.0209143242
C273       C   -0.0346548322    0.1716576970    0.0146723307
C270       C    0.0000000000    0.1531038882    0.0000000000
C274       C    0.0336863842    0.1767626470   -0.0082404092
C275       C    0.0326987605    0.2180234759   -0.0018809282
H275       H   -0.0610570313    0.1542193741    0.0215160945
H276       H   -0.0630204285    0.2255683672    0.0326354007
H277       H    0.0592434640    0.2353685218   -0.0083119139
H278       H    0.0609226411    0.1633736252   -0.0194922740
C248       C   -0.3468961118   -0.0000000000    0.0000000000
C248       C   -0.3062057487   -0.0055483232   -0.0185946919
C249       C   -0.2818291573    0.0133033807    0.0144150720
N248       N   -0.2997271878   -0.0034636897    0.0509418338
N249       N   -0.3406641395   -0.0100880767    0.0422102771
C250       C   -0.2368165691    0.0077120249    0.0101976577
H248       H   -0.3581269246    0.0083149763    0.0604814584
H249       H   -0.2883258111   -0.0321441162    0.0558825407
H250       H   -0.3028512411    0.0082229984   -0.0486127581
H251       H   -0.2875938460    0.0461413374    0.0142732330
H252       H   -0.2989020549   -0.0380150724   -0.0201269604
H253       H   -0.3556420977    0.0321320504   -0.0022081082
C251       C   -0.2129590853   -0.0097546717    0.0402234449
C252       C   -0.1716576970   -0.0135087433    0.0351247568
C249       C   -0.1531038882   -0.0000000000    0.0000000000
C253       C   -0.1767626470    0.0174642300   -0.0299612665
C254       C   -0.2180234759    0.0213542762   -0.0248342851
H254       H   -0.1542193741   -0.0269194078    0.0588748578
H255       H   -0.2255683672   -0.0202821026    0.0680094118
H256       H   -0.2353685218    0.0351609135   -0.0484002696
H257       H   -0.1633736252    0.0282823007   -0.0573727149
C227       C    0.3468961118   -0.0000000000    0.0000000000
C227       C    0.3062057487    0.0177246131    0.0078983890
C228       C    0.2818291573   -0.0125804375   -0.0150501439
N227       N    0.2997271878   -0.0509634151   -0.0031301601
N228       N    0.3406641395   -0.0431583654    0.0045642394
C229       C    0.2368165691   -0.0091187593   -0.0089619070
H227       H    0.3581269246   -0.0589055530   -0.0160399957
H228       H    0.2883258111   -0.0595590216    0.0246743899
H229       H    0.3028512411    0.0492671017   -0.0018896142
H230       H    0.2875938460   -0.0082078940   -0.0475959943
H231       H    0.2989020549    0.0150600552    0.0402918727
H232       H    0.3556420977    0.0063306113   -0.0315795466
C230       C    0.2129590853   -0.0411451343    0.0044896613
C231       C    0.1716576970   -0.0365727569    0.0088695059
C228       C    0.1531038882   -0.0000000000    0.0000000000
C232       C    0.1767626470    0.0319620745   -0.0134574373
C233       C    0.2180234759    0.0273791629   -0.0179757688
H233       H    0.1542193741   -0.0618530688    0.0191076236
H234       H    0.2255683672   -0.0700560905    0.0113484785
H235       H    0.2353685218    0.0525279234   -0.0286302847
H236       H    0.1633736252    0.0605390904   -0.0206527355
C206       C   -0.0000000000    0.0000000000   -0.3468961118
C206       C   -0.0190878586    0.0034928659   -0.3062057487
C207       C    0.0157765517   -0.0116565285   -0.2818291573
N206       N    0.0502628503    0.0089840671   -0.2997271878
N207       N    0.0408625655    0.0146194227   -0.3406641395
C208       C    0.0109759893   -0.0065570732   -0.2368165691
H206       H    0.0610270379   -0.0016870937   -0.3581269246
H207       H    0.0520546827    0.0380317312   -0.2883258111
H208       H   -0.0474299244   -0.0134618059   -0.3028512411
H209       H    0.0192073287   -0.0443150846   -0.2875938460
H210       H   -0.0241424344    0.0356003248   -0.2989020549
H211       H    0.0012999858   -0.0321815854   -0.3556420977
C209       C    0.0389237856    0.0140718887   -0.2129590853
C210       C    0.0334470189    0.0172491046   -0.1716576970
C207       C    0.0000000000    0.0000000000   -0.1531038882
C211       C   -0.0278839267   -0.0206194921   -0.1767626470
C212       C   -0.0223642446   -0.0239287983   -0.2180234759
H212       H    0.0555975362    0.0331634945   -0.1542193741
H213       H    0.0653998323    0.0275591312   -0.2255683672
H214       H   -0.0442886680   -0.0402167854   -0.2353685218
H215       H   -0.0539560641   -0.0343549137   -0.1633736252
C185       C   -0.0000000000    0.0000000000    0.3468961118
C185       C    0.0114082242   -0.0156970978    0.3062057487
C186       C   -0.0173352915    0.0091794285    0.2818291573
N185       N   -0.0136491213    0.0492013117    0.2997271878
N186       N   -0.0045011478    0.0431649910    0.3406641395
C187       C   -0.0106607414    0.0070580551    0.2368165691
H185       H   -0.0279272279    0.0542882638    0.3581269246
H186       H    0.0117631642    0.0633855704    0.2883258111
H187       H    0.0083864645   -0.0485848244    0.3028512411
H188       H   -0.0482627476   -0.0018588673    0.2875938460
H189       H    0.0425414583   -0.0063611786    0.2989020549
H190       H   -0.0295754603   -0.0127529035    0.3556420977
C188       C   -0.0041558660    0.0411801884    0.2129590853
C189       C    0.0010783019    0.0376174421    0.1716576970
C186       C   -0.0000000000   -0.0000000000    0.1531038882
C190       C   -0.0065239743   -0.0340604548    0.1767626470
C191       C   -0.0118957962   -0.0305161738    0.2180234759
H191       H    0.0058412743    0.0644731178    0.1542193741
H192       H   -0.0034527078    0.0708852777    0.2255683672
H193       H   -0.0170934113   -0.0573296714    0.2353685218
H194       H   -0.0076256462   -0.0635087905    0.1633736252
loop_
_geom_bond_atom_site_label_1
_geom_bond_atom_site_label_2
_geom_bond_distance
_geom_bond_site_symmetry_2
_ccdc_geom_bond_type
Zn1          O5 1.942       .   S
Zn1          O6 1.922       .   S
Zn1         O10 1.922       .   S
Zn1         O17 1.922       .   S
Zn2          O5 1.942       .   S
Zn2          O7 1.922       .   S
Zn2          O9 1.922       .   S
Zn2         O13 1.922       .   S
Zn3          O5 1.942       .   S
Zn3          O8 1.922       .   S
Zn3         O11 1.922       .   S
Zn3         O14 1.922       .   S
Zn4          O5 1.942       .   S
Zn4         O12 1.922       .   S
Zn4         O15 1.922       .   S
Zn4         O16 1.922       .   S
O6          C18 1.304       .   A
O7          C19 1.304       .   A
O8          C20 1.304       .   A
O9          C18 1.304       .   A
O10         C20 1.304       .   A
O11         C19 1.304       .   A
O12         C21 1.304       .   A
O13         C22 1.304       .   A
O14         C21 1.304       .   A
O15         C22 1.304       .   A
O16         C23 1.304       .   A
O17         C23 1.304       .   A
Zn24        O28 1.942       .   S
Zn24        O29 1.922       .   S
Zn24        O33 1.922       .   S
Zn24        O40 1.922       .   S
Zn25        O28 1.942       .   S
Zn25        O30 1.922       .   S
Zn25        O32 1.922       .   S
Zn25        O36 1.922       .   S
Zn26        O28 1.942       .   S
Zn26        O31 1.922       .   S
Zn26        O34 1.922       .   S
Zn26        O37 1.922       .   S
Zn27        O28 1.942       .   S
Zn27        O35 1.922       .   S
Zn27        O38 1.922       .   S
Zn27        O39 1.922       .   S
O29         C41 1.304       .   A
O30         C42 1.304       .   A
O31         C43 1.304       .   A
O32         C41 1.304       .   A
O33         C43 1.304       .   A
O34         C42 1.304       .   A
O35         C44 1.304       .   A
O36         C45 1.304       .   A
O37         C44 1.304       .   A
O38         C45 1.304       .   A
O39         C46 1.304       .   A
O40         C46 1.304       .   A
Zn47        O51 1.942       .   S
Zn47        O52 1.922       .   S
Zn47        O56 1.922       .   S
Zn47        O63 1.922       .   S
Zn48        O51 1.942       .   S
Zn48        O53 1.922       .   S
Zn48        O55 1.922       .   S
Zn48        O59 1.922       .   S
Zn49        O51 1.942       .   S
Zn49        O54 1.922       .   S
Zn49        O57 1.922       .   S
Zn49        O60 1.922       .   S
Zn50        O51 1.942       .   S
Zn50        O58 1.922       .   S
Zn50        O61 1.922       .   S
Zn50        O62 1.922       .   S
O52         C64 1.304       .   A
O53         C65 1.304       .   A
O54         C66 1.304       .   A
O55         C64 1.304       .   A
O56         C66 1.304       .   A
O57         C65 1.304       .   A
O58         C67 1.304       .   A
O59         C68 1.304       .   A
O60         C67 1.304       .   A
O61         C68 1.304       .   A
O62         C69 1.304       .   A
O63         C69 1.304       .   A
Zn70        O74 1.942       .   S
Zn70        O75 1.922       .   S
Zn70        O79 1.922       .   S
Zn70        O86 1.922       .   S
Zn71        O74 1.942       .   S
Zn71        O76 1.922       .   S
Zn71        O78 1.922       .   S
Zn71        O82 1.922       .   S
Zn72        O74 1.942       .   S
Zn72        O77 1.922       .   S
Zn72        O80 1.922       .   S
Zn72        O83 1.922       .   S
Zn73        O74 1.942       .   S
Zn73        O81 1.922       .   S
Zn73        O84 1.922       .   S
Zn73        O85 1.922       .   S
O75         C87 1.304       .   A
O76         C88 1.304       .   A
O77         C89 1.304       .   A
O78         C87 1.304       .   A
O79         C89 1.304       .   A
O80         C88 1.304       .   A
O81         C90 1.304       .   A
O82         C91 1.304       .   A
O83         C90 1.304       .   A
O84         C91 1.304       .   A
O85         C92 1.304       .   A
O86         C92 1.304       .   A
Zn93        O97 1.942       .   S
Zn93        O98 1.922       .   S
Zn93       O102 1.922       .   S
Zn93       O109 1.922       .   S
Zn94        O97 1.942       .   S
Zn94        O99 1.922       .   S
Zn94       O101 1.922       .   S
Zn94       O105 1.922       .   S
Zn95        O97 1.942       .   S
Zn95       O100 1.922       .   S
Zn95       O103 1.922       .   S
Zn95       O106 1.922       .   S
Zn96        O97 1.942       .   S
Zn96       O104 1.922       .   S
Zn96       O107 1.922       .   S
Zn96       O108 1.922       .   S
O98        C110 1.304       .   A
O99        C111 1.304       .   A
O100       C112 1.304       .   A
O101       C110 1.304       .   A
O102       C112 1.304       .   A
O103       C111 1.304       .   A
O104       C113 1.304       .   A
O105       C114 1.304       .   A
O106       C113 1.304       .   A
O107       C114 1.304       .   A
O108       C115 1.304       .   A
O109       C115 1.304       .   A
Zn116      O120 1.942       .   S
Zn116      O121 1.922       .   S
Zn116      O125 1.922       .   S
Zn116      O132 1.922       .   S
Zn117      O120 1.942       .   S
Zn117      O122 1.922       .   S
Zn117      O124 1.922       .   S
Zn117      O128 1.922       .   S
Zn118      O120 1.942       .   S
Zn118      O123 1.922       .   S
Zn118      O126 1.922       .   S
Zn118      O129 1.922       .   S
Zn119      O120 1.942       .   S
Zn119      O127 1.922       .   S
Zn119      O130 1.922       .   S
Zn119      O131 1.922       .   S
O121       C133 1.304       .   A
O122       C134 1.304       .   A
O123       C135 1.304       .   A
O124       C133 1.304       .   A
O125       C135 1.304       .   A
O126       C134 1.304       .   A
O127       C136 1.304       .   A
O128       C137 1.304       .   A
O129       C136 1.304       .   A
O130       C137 1.304       .   A
O131       C138 1.304       .   A
O132       C138 1.304       .   A
Zn139      O143 1.942       .   S
Zn139      O144 1.922       .   S
Zn139      O148 1.922       .   S
Zn139      O155 1.922       .   S
Zn140      O143 1.942       .   S
Zn140      O145 1.922       .   S
Zn140      O147 1.922       .   S
Zn140      O151 1.922       .   S
Zn141      O143 1.942       .   S
Zn141      O146 1.922       .   S
Zn141      O149 1.922       .   S
Zn141      O152 1.922       .   S
Zn142      O143 1.942       .   S
Zn142      O150 1.922       .   S
Zn142      O153 1.922       .   S
Zn142      O154 1.922       .   S
O144       C156 1.304       .   A
O145       C157 1.304       .   A
O146       C158 1.304       .   A
O147       C156 1.304       .   A
O148       C158 1.304       .   A
O149       C157 1.304       .   A
O150       C159 1.304       .   A
O151       C160 1.304       .   A
O152       C159 1.304       .   A
O153       C160 1.304       .   A
O154       C161 1.304       .   A
O155       C161 1.304       .   A
Zn162      O166 1.942       .   S
Zn162      O167 1.922       .   S
Zn162      O171 1.922       .   S
Zn162      O178 1.922       .   S
Zn163      O166 1.942       .   S
Zn163      O168 1.922       .   S
Zn163      O170 1.922       .   S
Zn163      O174 1.922       .   S
Zn164      O166 1.942       .   S
Zn164      O169 1.922       .   S
Zn164      O172 1.922       .   S
Zn164      O175 1.922       .   S
Zn165      O166 1.942       .   S
Zn165      O173 1.922       .   S
Zn165      O176 1.922       .   S
Zn165      O177 1.922       .   S
O167       C179 1.304       .   A
O168       C180 1.304       .   A
O169       C181 1.304       .   A
O170       C179 1.304       .   A
O171       C181 1.304       .   A
O172       C180 1.304       .   A
O173       C182 1.304       .   A
O174       C183 1.304       .   A
O175       C182 1.304       .   A
O176       C183 1.304       .   A
O177       C184 1.304       .   A
O178       C184 1.304       .   A
C185       C185 0.101       .   A
C185       N186 0.098       .   A
C185       H190 0.074       .   A
C185       C186 0.101       .   A
C185       H187 0.074       .   A
C185       H189 0.074       .   A
C186       N185 0.098       .   A
C186       C187 0.102       .   A
C186       H188 0.074       .   A
N185       N186 0.095       .   A
N185       H186 0.070       .   A
N186       H185 0.070       .   A
C187       C188 0.094       .   A
C187       C191 0.094       .   A
C188       C189 0.093       .   A
C188       H192 0.072       .   A
C189       C186 0.094       .   A
C189       H191 0.072       .   A
C186       C190 0.094       .   A
C190       C191 0.093       .   A
C190       H194 0.072       .   A
C191       H193 0.072       .   A
C206       C206 0.101       .   A
C206       N207 0.098       .   A
C206       H211 0.074       .   A
C206       C207 0.101       .   A
C206       H208 0.074       .   A
C206       H210 0.074       .   A
C207       N206 0.098       .   A
C207       C208 0.102       .   A
C207       H209 0.074       .   A
N206       N207 0.095       .   A
N206       H207 0.070       .   A
N207       H206 0.070       .   A
C208       C209 0.094       .   A
C208       C212 0.094       .   A
C209       C210 0.093       .   A
C209       H213 0.072       .   A
C210       C207 0.094       .   A
C210       H212 0.072       .   A
C207       C211 0.094       .   A
C211       C212 0.093       .   A
C211       H215 0.072       .   A
C212       H214 0.072       .   A
C227       C227 0.101       .   A
C227       N228 0.098       .   A
C227       H232 0.074       .   A
C227       C228 0.101       .   A
C227       H229 0.074       .   A
C227       H231 0.074       .   A
C228       N227 0.098       .   A
C228       C229 0.102       .   A
C228       H230 0.074       .   A
N227       N228 0.095       .   A
N227       H228 0.070       .   A
N228       H227 0.070       .   A
C229       C230 0.094       .   A
C229       C233 0.094       .   A
C230       C231 0.093       .   A
C230       H234 0.072       .   A
C231       C228 0.094       .   A
C231       H233 0.072       .   A
C228       C232 0.094       .   A
C232       C233 0.093       .   A
C232       H236 0.072       .   A
C233       H235 0.072       .   A
C248       C248 0.101       .   A
C248       N249 0.098       .   A
C248       H253 0.074       .   A
C248       C249 0.101       .   A
C248       H250 0.074       .   A
C248       H252 0.074       .   A
C249       N248 0.098       .   A
C249       C250 0.102       .   A
C249       H251 0.074       .   A
N248       N249 0.095       .   A
N248       H249 0.070       .   A
N249       H248 0.070       .   A
C250       C251 0.094       .   A
C250       C254 0.094       .   A
C251       C252 0.093       .   A
C251       H255 0.072       .   A
C252       C249 0.094       .   A
C252       H254 0.072       .   A
C249       C253 0.094       .   A
C253       C254 0.093       .   A
C253       H257 0.072       .   A
C254       H256 0.072       .   A
C269       C269 0.101       .   A
C269       N270 0.098       .   A
C269       H274 0.074       .   A
C269       C270 0.101       .   A
C269       H271 0.074       .   A
C269       H273 0.074       .   A
C270       N269 0.098       .   A
C270       C271 0.102       .   A
C270       H272 0.074       .   A
N269       N270 0.095       .   A
N269       H270 0.070       .   A
N270       H269 0.070       .   A
C271       C272 0.094       .   A
C271       C275 0.094       .   A
C272       C273 0.093       .   A
C272       H276 0.072       .   A
C273       C270 0.094       .   A
C273       H275 0.072       .   A
C270       C274 0.094       .   A
C274       C275 0.093       .   A
C274       H278 0.072       .   A
C275       H277 0.072       .   A
C290       C290 0.101       .   A
C290       N291 0.098       .   A
C290       H295 0.074       .   A
C290       C291 0.101       .   A
C290       H292 0.074       .   A
C290       H294 0.074       .   A
C291       N290 0.098       .   A
C291       C292 0.102       .   A
C291       H293 0.074       .   A
N290       N291 0.095       .   A
N290       H291 0.070       .   A
N291       H290 0.070       .   A
C292       C293 0.094       .   A
C292       C296 0.094       .   A
C293       C294 0.093       .   A
C293       H297 0.072       .   A
C294       C291 0.094       .   A
C294       H296 0.072       .   A
C291       C295 0.094       .   A
C295       C296 0.093       .   A
C295       H299 0.072       .   A
C296       H298 0.072       .   A
C311       C311 0.101       .   A
C311       N312 0.098       .   A
C311       H316 0.074       .   A
C311       C312 0.101       .   A
C311       H313 0.074       .   A
C311       H315 0.074       .   A
C312       N311 0.098       .   A
C312       C313 0.102       .   A
C312       H314 0.074       .   A
N311       N312 0.095       .   A
N311       H312 0.070       .   A
N312       H311 0.070       .   A
C313       C314 0.094       .   A
C313       C317 0.094       .   A
C314       C315 0.093       .   A
C314       H318 0.072       .   A
C315       C312 0.094       .   A
C315       H317 0.072       .   A
C312       C316 0.094       .   A
C316       C317 0.093       .   A
C316       H320 0.072       .   A
C317       H319 0.072       .   A
C332       C332 0.101       .   A
C332       N333 0.098       .   A
C332       H337 0.074       .   A
C332       C333 0.101       .   A
C332       H334 0.074       .   A
C332       H336 0.074       .   A
C333       N332 0.098       .   A
C333       C334 0.102       .   A
C333       H335 0.074       .   A
N332       N333 0.095       .   A
N332       H333 0.070       .   A
N333       H332 0.070       .   A
C334       C335 0.094       .   A
C334       C338 0.094       .   A
C335       C336 0.093       .   A
C335       H339 0.072       .   A
C336       C333 0.094       .   A
C336       H338 0.072       .   A
C333       C337 0.094       .   A
C337       C338 0.093       .   A
C337       H341 0.072       .   A
C338       H340 0.072       .   A
C353       C353 0.101       .   A
C353       N354 0.098       .   A
C353       H358 0.074       .   A
C353       C354 0.101       .   A
C353       H355 0.074       .   A
C353       H357 0.074       .   A
C354       N353 0.098       .   A
C354       C355 0.102       .   A
C354       H356 0.074       .   A
N353       N354 0.095       .   A
N353       H354 0.070       .   A
N354       H353 0.070       .   A
C355       C356 0.094       .   A
C355       C359 0.094       .   A
C356       C357 0.093       .   A
C356       H360 0.072       .   A
C357       C354 0.094       .   A
C357       H359 0.072       .   A
C354       C358 0.094       .   A
C358       C359 0.093       .   A
C358       H362 0.072       .   A
C359       H361 0.072       .   A
C374       C374 0.101       .   A
C374       N375 0.098       .   A
C374       H379 0.074       .   A
C374       C375 0.101       .   A
C374       H376 0.074       .   A
C374       H378 0.074       .   A
C375       N374 0.098       .   A
C375       C376 0.102       .   A
C375       H377 0.074       .   A
N374       N375 0.095       .   A
N374       H375 0.070       .   A
N375       H374 0.070       .   A
C376       C377 0.094       .   A
C376       C380 0.094       .   A
C377       C378 0.093       .   A
C377       H381 0.072       .   A
C378       C375 0.094       .   A
C378       H380 0.072       .   A
C375       C379 0.094       .   A
C379       C380 0.093       .   A
C379       H383 0.072       .   A
C380       H382 0.072       .   A
C395       C395 0.101       .   A
C395       N396 0.098       .   A
C395       H400 0.074       .   A
C395       C396 0.101       .   A
C395       H397 0.074       .   A
C395       H399 0.074       .   A
C396       N395 0.098       .   A
C396       C397 0.102       .   A
C396       H398 0.074       .   A
N395       N396 0.095       .   A
N395       H396 0.070       .   A
N396       H395 0.070       .   A
C397       C398 0.094       .   A
C397       C401 0.094       .   A
C398       C399 0.093       .   A
C398       H402 0.072       .   A
C399       C396 0.094       .   A
C399       H401 0.072       .   A
C396       C400 0.094       .   A
C400       C401 0.093       .   A
C400       H404 0.072       .   A
C401       H403 0.072       .   A
C416       C416 0.101       .   A
C416       N417 0.098       .   A
C416       H421 0.074       .   A
C416       C417 0.101       .   A
C416       H418 0.074       .   A
C416       H420 0.074       .   A
C417       N416 0.098       .   A
C417       C418 0.102       .   A
C417       H419 0.074       .   A
N416       N417 0.095       .   A
N416       H417 0.070       .   A
N417       H416 0.070       .   A
C418       C419 0.094       .   A
C418       C422 0.094       .   A
C419       C420 0.093       .   A
C419       H423 0.072       .   A
C420       C417 0.094       .   A
C420       H422 0.072       .   A
C417       C421 0.094       .   A
C421       C422 0.093       .   A
C421       H425 0.072       .   A
C422       H424 0.072       .   A
C437       C437 0.101       .   A
C437       N438 0.098       .   A
C437       H442 0.074       .   A
C437       C438 0.101       .   A
C437       H439 0.074       .   A
C437       H441 0.074       .   A
C438       N437 0.098       .   A
C438       C439 0.102       .   A
C438       H440 0.074       .   A
N437       N438 0.095       .   A
N437       H438 0.070       .   A
N438       H437 0.070       .   A
C439       C440 0.094       .   A
C439       C443 0.094       .   A
C440       C441 0.093       .   A
C440       H444 0.072       .   A
C441       C438 0.094       .   A
C441       H443 0.072       .   A
C438       C442 0.094       .   A
C442       C443 0.093       .   A
C442       H446 0.072       .   A
C443       H445 0.072       .   A
C458       C458 0.101       .   A
C458       N459 0.098       .   A
C458       H463 0.074       .   A
C458       C459 0.101       .   A
C458       H460 0.074       .   A
C458       H462 0.074       .   A
C459       N458 0.098       .   A
C459       C460 0.102       .   A
C459       H461 0.074       .   A
N458       N459 0.095       .   A
N458       H459 0.070       .   A
N459       H458 0.070       .   A
C460       C461 0.094       .   A
C460       C464 0.094       .   A
C461       C462 0.093       .   A
C461       H465 0.072       .   A
C462       C459 0.094       .   A
C462       H464 0.072       .   A
C459       C463 0.094       .   A
C463       C464 0.093       .   A
C463       H467 0.072       .   A
C464       H466 0.072       .   A
C479       C479 0.101       .   A
C479       N480 0.098       .   A
C479       H484 0.074       .   A
C479       C480 0.101       .   A
C479       H481 0.074       .   A
C479       H483 0.074       .   A
C480       N479 0.098       .   A
C480       C481 0.102       .   A
C480       H482 0.074       .   A
N479       N480 0.095       .   A
N479       H480 0.070       .   A
N480       H479 0.070       .   A
C481       C482 0.094       .   A
C481       C485 0.094       .   A
C482       C483 0.093       .   A
C482       H486 0.072       .   A
C483       C480 0.094       .   A
C483       H485 0.072       .   A
C480       C484 0.094       .   A
C484       C485 0.093       .   A
C484       H488 0.072       .   A
C485       H487 0.072       .   A
C500       C500 0.101       .   A
C500       N501 0.098       .   A
C500       H505 0.074       .   A
C500       C501 0.101       .   A
C500       H502 0.074       .   A
C500       H504 0.074       .   A
C501       N500 0.098       .   A
C501       C502 0.102       .   A
C501       H503 0.074       .   A
N500       N501 0.095       .   A
N500       H501 0.070       .   A
N501       H500 0.070       .   A
C502       C503 0.094       .   A
C502       C506 0.094       .   A
C503       C504 0.093       .   A
C503       H507 0.072       .   A
C504       C501 0.094       .   A
C504       H506 0.072       .   A
C501       C505 0.094       .   A
C505       C506 0.093       .   A
C505       H509 0.072       .   A
C506       H508 0.072       .   A
C521       C521 0.101       .   A
C521       N522 0.098       .   A
C521       H526 0.074       .   A
C521       C522 0.101       .   A
C521       H523 0.074       .   A
C521       H525 0.074       .   A
C522       N521 0.098       .   A
C522       C523 0.102       .   A
C522       H524 0.074       .   A
N521       N522 0.095       .   A
N521       H522 0.070       .   A
N522       H521 0.070       .   A
C523       C524 0.094       .   A
C523       C527 0.094       .   A
C524       C525 0.093       .   A
C524       H528 0.072       .   A
C525       C522 0.094       .   A
C525       H527 0.072       .   A
C522       C526 0.094       .   A
C526       C527 0.093       .   A
C526       H530 0.072       .   A
C527       H529 0.072       .   A
C542       C542 0.101       .   A
C542       N543 0.098       .   A
C542       H547 0.074       .   A
C542       C543 0.101       .   A
C542       H544 0.074       .   A
C542       H546 0.074       .   A
C543       N542 0.098       .   A
C543       C544 0.102       .   A
C543       H545 0.074       .   A
N542       N543 0.095       .   A
N542       H543 0.070       .   A
N543       H542 0.070       .   A
C544       C545 0.094       .   A
C544       C548 0.094       .   A
C545       C546 0.093       .   A
C545       H549 0.072       .   A
C546       C543 0.094       .   A
C546       H548 0.072       .   A
C543       C547 0.094       .   A
C547       C548 0.093       .   A
C547       H551 0.072       .   A
C548       H550 0.072       .   A
C563       C563 0.101       .   A
C563       N564 0.098       .   A
C563       H568 0.074       .   A
C563       C564 0.101       .   A
C563       H565 0.074       .   A
C563       H567 0.074       .   A
C564       N563 0.098       .   A
C564       C565 0.102       .   A
C564       H566 0.074       .   A
N563       N564 0.095       .   A
N563       H564 0.070       .   A
N564       H563 0.070       .   A
C565       C566 0.094       .   A
C565       C569 0.094       .   A
C566       C567 0.093       .   A
C566       H570 0.072       .   A
C567       C564 0.094       .   A
C567       H569 0.072       .   A
C564       C568 0.094       .   A
C568       C569 0.093       .   A
C568       H572 0.072       .   A
C569       H571 0.072       .   A
C584       C584 0.101       .   A
C584       N585 0.098       .   A
C584       H589 0.074       .   A
C584       C585 0.101       .   A
C584       H586 0.074       .   A
C584       H588 0.074       .   A
C585       N584 0.098       .   A
C585       C586 0.102       .   A
C585       H587 0.074       .   A
N584       N585 0.095       .   A
N584       H585 0.070       .   A
N585       H584 0.070       .   A
C586       C587 0.094       .   A
C586       C590 0.094       .   A
C587       C588 0.093       .   A
C587       H591 0.072       .   A
C588       C585 0.094       .   A
C588       H590 0.072       .   A
C585       C589 0.094       .   A
C589       C590 0.093       .   A
C589       H593 0.072       .   A
C590       H592 0.072       .   A
C605       C605 0.101       .   A
C605       N606 0.098       .   A
C605       H610 0.074       .   A
C605       C606 0.101       .   A
C605       H607 0.074       .   A
C605       H609 0.074       .   A
C606       N605 0.098       .   A
C606       C607 0.102       .   A
C606       H608 0.074       .   A
N605       N606 0.095       .   A
N605       H606 0.070       .   A
N606       H605 0.070       .   A
C607       C608 0.094       .   A
C607       C611 0.094       .   A
C608       C609 0.093       .   A
C608       H612 0.072       .   A
C609       C606 0.094       .   A
C609       H611 0.072       .   A
C606       C610 0.094       .   A
C610       C611 0.093       .   A
C610       H614 0.072       .   A
C611       H613 0.072       .   A
C626       C626 0.101       .   A
C626       N627 0.098       .   A
C626       H631 0.074       .   A
C626       C627 0.101       .   A
C626       H628 0.074       .   A
C626       H630 0.074       .   A
C627       N626 0.098       .   A
C627       C628 0.102       .   A
C627       H629 0.074       .   A
N626       N627 0.095       .   A
N626       H627 0.070       .   A
N627       H626 0.070       .   A
C628       C629 0.094       .   A
C628       C632 0.094       .   A
C629       C630 0.093       .   A
C629       H633 0.072       .   A
C630       C627 0.094       .   A
C630       H632 0.072       .   A
C627       C631 0.094       .   A
C631       C632 0.093       .   A
C631       H635 0.072       .   A
C632       H634 0.072       .   A
C647       C647 0.101       .   A
C647       N648 0.098       .   A
C647       H652 0.074       .   A
C647       C648 0.101       .   A
C647       H649 0.074       .   A
C647       H651 0.074       .   A
C648       N647 0.098       .   A
C648       C649 0.102       .   A
C648       H650 0.074       .   A
N647       N648 0.095       .   A
N647       H648 0.070       .   A
N648       H647 0.070       .   A
C649       C650 0.094       .   A
C649       C653 0.094       .   A
C650       C651 0.093       .   A
C650       H654 0.072       .   A
C651       C648 0.094       .   A
C651       H653 0.072       .   A
C648       C652 0.094       .   A
C652       C653 0.093       .   A
C652       H656 0.072       .   A
C653       H655 0.072       .   A
C668       C668 0.101       .   A
C668       N669 0.098       .   A
C668       H673 0.074       .   A
C668       C669 0.101       .   A
C668       H670 0.074       .   A
C668       H672 0.074       .   A
C669       N668 0.098       .   A
C669       C670 0.102       .   A
C669       H671 0.074       .   A
N668       N669 0.095       .   A
N668       H669 0.070       .   A
N669       H668 0.070       .   A
C670       C671 0.094       .   A
C670       C674 0.094       .   A
C671       C672 0.093       .   A
C671       H675 0.072       .   A
C672       C669 0.094       .   A
C672       H674 0.072       .   A
C669       C673 0.094       .   A
C673       C674 0.093       .   A
C673       H677 0.072       .   A
C674       H676 0.072       .   A
C18        C186 1.540       .   S
C19        C228 1.540       .   S
C20        C291 1.540       .   S
C21        C207 1.540       .   S
C22        C270 1.540       .   S
C23        C249 1.540       .   S
C41        C332 1.540       .   S
C42        C185 1.540   1_655   S
C43        C354 1.540       .   S
C44        C312 1.540       .   S
C45        C375 1.540       .   S
C46        C206 1.540   1_656   S
C64        C269 1.540   1_655   S
C65        C396 1.540       .   S
C66        C437 1.540       .   S
C67        C290 1.540   1_665   S
C68        C458 1.540       .   S
C69        C417 1.540       .   S
C87        C353 1.540       .   S
C88        C395 1.540       .   S
C89        C500 1.540       .   S
C90        C374 1.540   1_565   S
C91        C479 1.540       .   S
C92        C416 1.540   1_556   S
C110       C227 1.540   1_565   S
C111       C521 1.540       .   S
C112       C584 1.540       .   S
C113       C248 1.540   1_665   S
C114       C563 1.540       .   S
C115       C542 1.540       .   S
C133       C311 1.540   1_465   S
C134       C522 1.540       .   S
C135       C605 1.540       .   S
C136       C333 1.540   1_565   S
C137       C626 1.540       .   S
C138       C543 1.540   1_556   S
C156       C438 1.540   1_455   S
C157       C564 1.540   1_545   S
C158       C669 1.540       .   S
C159       C459 1.540       .   S
C160       C647 1.540       .   S
C161       C585 1.540       .   S
C179       C606 1.540   1_545   S
C180       C501 1.540       .   S
C181       C648 1.540       .   S
C182       C627 1.540       .   S
C183       C668 1.540   1_556   S
C184       C480 1.540   1_455   S
