data_pcu_v1-6c_Zn_1_Ch_1-42_fer_tobacco
_audit_creation_date              2021-04-07
_audit_creation_method            'tobacco_3.0'
_symmetry_space_group_name_H-M    'P1'
_symmetry_Int_Tables_number       1
_symmetry_cell_setting            triclinic
loop_
_symmetry_equiv_pos_as_xyz
  x,y,z
_cell_length_a                    42.95208318493745
_cell_length_b                    42.95208318493745
_cell_length_c                    42.95208318493745
_cell_angle_alpha                 90.0
_cell_angle_beta                  90.0
_cell_angle_gamma                 90.0
loop_
_atom_site_label
_atom_site_type_symbol
_atom_site_fract_x
_atom_site_fract_y
_atom_site_fract_z
_atom_site_charge
Zn1       Zn   -0.0261035069   -0.0261035069    0.0261035069          1.4972
Zn2       Zn    0.0261035069    0.0261035069    0.0261035069          1.4936
Zn3       Zn    0.0261035069   -0.0261035069   -0.0261035069          1.4911
Zn4       Zn   -0.0261035069    0.0261035069   -0.0261035069          1.4948
O5         O    0.0000000000    0.0000000000    0.0000000000         -2.1462
O6         O   -0.0191841685   -0.0191841685    0.0697661156         -1.0525
O7         O    0.0697661156    0.0191841685    0.0191841685         -1.0507
O8         O    0.0191841685   -0.0697661156   -0.0191841685         -1.0459
O9         O    0.0191841685    0.0191841685    0.0697661156         -1.0527
O10        O   -0.0191841685   -0.0697661156    0.0191841685         -1.0487
O11        O    0.0697661156   -0.0191841685   -0.0191841685         -1.0545
O12        O   -0.0191841685    0.0191841685   -0.0697661156         -1.0484
O13        O    0.0191841685    0.0697661156    0.0191841685          -1.056
O14        O    0.0191841685   -0.0191841685   -0.0697661156         -1.0499
O15        O   -0.0191841685    0.0697661156   -0.0191841685         -1.0545
O16        O   -0.0697661156    0.0191841685   -0.0191841685         -1.0536
O17        O   -0.0697661156   -0.0191841685    0.0191841685         -1.0515
C18        C   -0.0000000000   -0.0000000000    0.0834138820          0.4664
C19        C    0.0834138820   -0.0000000000   -0.0000000000          0.4713
C20        C   -0.0000000000   -0.0834138820    0.0000000000          0.4609
C21        C    0.0000000000    0.0000000000   -0.0834138820          0.4646
C22        C    0.0000000000    0.0834138820   -0.0000000000           0.476
C23        C   -0.0834138820    0.0000000000    0.0000000000          0.4665
Zn24      Zn    0.9738964931    0.0261035069    0.4738964931          1.4972
Zn25      Zn    1.0261035069   -0.0261035069    0.4738964931          1.4936
Zn26      Zn    1.0261035069    0.0261035069    0.5261035069          1.4911
Zn27      Zn    0.9738964931   -0.0261035069    0.5261035069          1.4948
O28        O    1.0000000000    0.0000000000    0.5000000000         -2.1462
O29        O    0.9808158315    0.0191841685    0.4302338844         -1.0525
O30        O    1.0697661156   -0.0191841685    0.4808158315         -1.0507
O31        O    1.0191841685    0.0697661156    0.5191841685         -1.0459
O32        O    1.0191841685   -0.0191841685    0.4302338844         -1.0527
O33        O    0.9808158315    0.0697661156    0.4808158315         -1.0487
O34        O    1.0697661156    0.0191841685    0.5191841685         -1.0545
O35        O    0.9808158315   -0.0191841685    0.5697661156         -1.0484
O36        O    1.0191841685   -0.0697661156    0.4808158315          -1.056
O37        O    1.0191841685    0.0191841685    0.5697661156         -1.0499
O38        O    0.9808158315   -0.0697661156    0.5191841685         -1.0545
O39        O    0.9302338844   -0.0191841685    0.5191841685         -1.0536
O40        O    0.9302338844    0.0191841685    0.4808158315         -1.0515
C41        C    1.0000000000    0.0000000000    0.4165861180          0.4664
C42        C    1.0834138820    0.0000000000    0.5000000000          0.4713
C43        C    1.0000000000    0.0834138820    0.5000000000          0.4609
C44        C    1.0000000000    0.0000000000    0.5834138820          0.4646
C45        C    1.0000000000   -0.0834138820    0.5000000000           0.476
C46        C    0.9165861180    0.0000000000    0.5000000000          0.4665
Zn47      Zn    1.0261035069    0.4738964931   -0.0261035069          1.4972
Zn48      Zn    0.9738964931    0.4738964931    0.0261035069          1.4936
Zn49      Zn    1.0261035069    0.5261035069    0.0261035069          1.4911
Zn50      Zn    0.9738964931    0.5261035069   -0.0261035069          1.4948
O51        O    1.0000000000    0.5000000000    0.0000000000         -2.1462
O52        O    1.0191841685    0.4302338844   -0.0191841685         -1.0525
O53        O    0.9808158315    0.4808158315    0.0697661156         -1.0507
O54        O    1.0697661156    0.5191841685    0.0191841685         -1.0459
O55        O    0.9808158315    0.4302338844    0.0191841685         -1.0527
O56        O    1.0697661156    0.4808158315   -0.0191841685         -1.0487
O57        O    1.0191841685    0.5191841685    0.0697661156         -1.0545
O58        O    0.9808158315    0.5697661156   -0.0191841685         -1.0484
O59        O    0.9302338844    0.4808158315    0.0191841685          -1.056
O60        O    1.0191841685    0.5697661156    0.0191841685         -1.0499
O61        O    0.9302338844    0.5191841685   -0.0191841685         -1.0545
O62        O    0.9808158315    0.5191841685   -0.0697661156         -1.0536
O63        O    1.0191841685    0.4808158315   -0.0697661156         -1.0515
C64        C    1.0000000000    0.4165861180    0.0000000000          0.4664
C65        C    1.0000000000    0.5000000000    0.0834138820          0.4713
C66        C    1.0834138820    0.5000000000    0.0000000000          0.4609
C67        C    1.0000000000    0.5834138820    0.0000000000          0.4646
C68        C    0.9165861180    0.5000000000    0.0000000000           0.476
C69        C    1.0000000000    0.5000000000   -0.0834138820          0.4665
Zn70      Zn    0.9738964931    0.4738964931    0.5261035069          1.4972
Zn71      Zn    1.0261035069    0.4738964931    0.4738964931          1.4936
Zn72      Zn    0.9738964931    0.5261035069    0.4738964931          1.4911
Zn73      Zn    1.0261035069    0.5261035069    0.5261035069          1.4948
O74        O    1.0000000000    0.5000000000    0.5000000000         -2.1462
O75        O    0.9808158315    0.4302338844    0.5191841685         -1.0525
O76        O    1.0191841685    0.4808158315    0.4302338844         -1.0507
O77        O    0.9302338844    0.5191841685    0.4808158315         -1.0459
O78        O    1.0191841685    0.4302338844    0.4808158315         -1.0527
O79        O    0.9302338844    0.4808158315    0.5191841685         -1.0487
O80        O    0.9808158315    0.5191841685    0.4302338844         -1.0545
O81        O    1.0191841685    0.5697661156    0.5191841685         -1.0484
O82        O    1.0697661156    0.4808158315    0.4808158315          -1.056
O83        O    0.9808158315    0.5697661156    0.4808158315         -1.0499
O84        O    1.0697661156    0.5191841685    0.5191841685         -1.0545
O85        O    1.0191841685    0.5191841685    0.5697661156         -1.0536
O86        O    0.9808158315    0.4808158315    0.5697661156         -1.0515
C87        C    1.0000000000    0.4165861180    0.5000000000          0.4664
C88        C    1.0000000000    0.5000000000    0.4165861180          0.4713
C89        C    0.9165861180    0.5000000000    0.5000000000          0.4609
C90        C    1.0000000000    0.5834138820    0.5000000000          0.4646
C91        C    1.0834138820    0.5000000000    0.5000000000           0.476
C92        C    1.0000000000    0.5000000000    0.5834138820          0.4665
Zn93      Zn    0.4738964931    0.9738964931    0.0261035069          1.4972
Zn94      Zn    0.4738964931    1.0261035069   -0.0261035069          1.4936
Zn95      Zn    0.5261035069    1.0261035069    0.0261035069          1.4911
Zn96      Zn    0.5261035069    0.9738964931   -0.0261035069          1.4948
O97        O    0.5000000000    1.0000000000    0.0000000000         -2.1462
O98        O    0.4302338844    0.9808158315    0.0191841685         -1.0525
O99        O    0.4808158315    1.0697661156   -0.0191841685         -1.0507
O100       O    0.5191841685    1.0191841685    0.0697661156         -1.0459
O101       O    0.4302338844    1.0191841685   -0.0191841685         -1.0527
O102       O    0.4808158315    0.9808158315    0.0697661156         -1.0487
O103       O    0.5191841685    1.0697661156    0.0191841685         -1.0545
O104       O    0.5697661156    0.9808158315   -0.0191841685         -1.0484
O105       O    0.4808158315    1.0191841685   -0.0697661156          -1.056
O106       O    0.5697661156    1.0191841685    0.0191841685         -1.0499
O107       O    0.5191841685    0.9808158315   -0.0697661156         -1.0545
O108       O    0.5191841685    0.9302338844   -0.0191841685         -1.0536
O109       O    0.4808158315    0.9302338844    0.0191841685         -1.0515
C110       C    0.4165861180    1.0000000000    0.0000000000          0.4664
C111       C    0.5000000000    1.0834138820    0.0000000000          0.4713
C112       C    0.5000000000    1.0000000000    0.0834138820          0.4609
C113       C    0.5834138820    1.0000000000    0.0000000000          0.4646
C114       C    0.5000000000    1.0000000000   -0.0834138820           0.476
C115       C    0.5000000000    0.9165861180    0.0000000000          0.4665
Zn116     Zn    0.5261035069    1.0261035069    0.4738964931          1.4972
Zn117     Zn    0.4738964931    1.0261035069    0.5261035069          1.4936
Zn118     Zn    0.4738964931    0.9738964931    0.4738964931          1.4911
Zn119     Zn    0.5261035069    0.9738964931    0.5261035069          1.4948
O120       O    0.5000000000    1.0000000000    0.5000000000         -2.1462
O121       O    0.5191841685    1.0697661156    0.4808158315         -1.0525
O122       O    0.4302338844    1.0191841685    0.5191841685         -1.0507
O123       O    0.4808158315    0.9808158315    0.4302338844         -1.0459
O124       O    0.4808158315    1.0697661156    0.5191841685         -1.0527
O125       O    0.5191841685    1.0191841685    0.4302338844         -1.0487
O126       O    0.4302338844    0.9808158315    0.4808158315         -1.0545
O127       O    0.5191841685    0.9302338844    0.5191841685         -1.0484
O128       O    0.4808158315    1.0191841685    0.5697661156          -1.056
O129       O    0.4808158315    0.9302338844    0.4808158315         -1.0499
O130       O    0.5191841685    0.9808158315    0.5697661156         -1.0545
O131       O    0.5697661156    0.9808158315    0.5191841685         -1.0536
O132       O    0.5697661156    1.0191841685    0.4808158315         -1.0515
C133       C    0.5000000000    1.0834138820    0.5000000000          0.4664
C134       C    0.4165861180    1.0000000000    0.5000000000          0.4713
C135       C    0.5000000000    1.0000000000    0.4165861180          0.4609
C136       C    0.5000000000    0.9165861180    0.5000000000          0.4646
C137       C    0.5000000000    1.0000000000    0.5834138820           0.476
C138       C    0.5834138820    1.0000000000    0.5000000000          0.4665
Zn139     Zn    0.4738964931    0.5261035069   -0.0261035069          1.4972
Zn140     Zn    0.4738964931    0.4738964931    0.0261035069          1.4936
Zn141     Zn    0.5261035069    0.4738964931   -0.0261035069          1.4911
Zn142     Zn    0.5261035069    0.5261035069    0.0261035069          1.4948
O143       O    0.5000000000    0.5000000000    0.0000000000         -2.1462
O144       O    0.4302338844    0.5191841685   -0.0191841685         -1.0525
O145       O    0.4808158315    0.4302338844    0.0191841685         -1.0507
O146       O    0.5191841685    0.4808158315   -0.0697661156         -1.0459
O147       O    0.4302338844    0.4808158315    0.0191841685         -1.0527
O148       O    0.4808158315    0.5191841685   -0.0697661156         -1.0487
O149       O    0.5191841685    0.4302338844   -0.0191841685         -1.0545
O150       O    0.5697661156    0.5191841685    0.0191841685         -1.0484
O151       O    0.4808158315    0.4808158315    0.0697661156          -1.056
O152       O    0.5697661156    0.4808158315   -0.0191841685         -1.0499
O153       O    0.5191841685    0.5191841685    0.0697661156         -1.0545
O154       O    0.5191841685    0.5697661156    0.0191841685         -1.0536
O155       O    0.4808158315    0.5697661156   -0.0191841685         -1.0515
C156       C    0.4165861180    0.5000000000    0.0000000000          0.4664
C157       C    0.5000000000    0.4165861180    0.0000000000          0.4713
C158       C    0.5000000000    0.5000000000   -0.0834138820          0.4609
C159       C    0.5834138820    0.5000000000    0.0000000000          0.4646
C160       C    0.5000000000    0.5000000000    0.0834138820           0.476
C161       C    0.5000000000    0.5834138820    0.0000000000          0.4665
Zn162     Zn    0.5261035069    0.4738964931    0.4738964931          1.4972
Zn163     Zn    0.4738964931    0.5261035069    0.4738964931          1.4936
Zn164     Zn    0.4738964931    0.4738964931    0.5261035069          1.4911
Zn165     Zn    0.5261035069    0.5261035069    0.5261035069          1.4948
O166       O    0.5000000000    0.5000000000    0.5000000000         -2.1462
O167       O    0.5191841685    0.4808158315    0.4302338844         -1.0525
O168       O    0.4302338844    0.5191841685    0.4808158315         -1.0507
O169       O    0.4808158315    0.4302338844    0.5191841685         -1.0459
O170       O    0.4808158315    0.5191841685    0.4302338844         -1.0527
O171       O    0.5191841685    0.4302338844    0.4808158315         -1.0487
O172       O    0.4302338844    0.4808158315    0.5191841685         -1.0545
O173       O    0.5191841685    0.5191841685    0.5697661156         -1.0484
O174       O    0.4808158315    0.5697661156    0.4808158315          -1.056
O175       O    0.4808158315    0.4808158315    0.5697661156         -1.0499
O176       O    0.5191841685    0.5697661156    0.5191841685         -1.0545
O177       O    0.5697661156    0.5191841685    0.5191841685         -1.0536
O178       O    0.5697661156    0.4808158315    0.4808158315         -1.0515
C179       C    0.5000000000    0.5000000000    0.4165861180          0.4664
C180       C    0.4165861180    0.5000000000    0.5000000000          0.4713
C181       C    0.5000000000    0.4165861180    0.5000000000 0.46409999999999996
C182       C    0.5000000000    0.5000000000    0.5834138820          0.4646
C183       C    0.5000000000    0.5834138820    0.5000000000           0.476
C184       C    0.5834138820    0.5000000000    0.5000000000          0.4665
C783       C    0.5000000000    0.5000000000   -0.1192677891          0.6919
C784       C    0.4998537381    0.5270225032   -0.1350730594          0.6918
C785       C    0.5001553373    0.5279939861   -0.1663001408         -0.3078
C786       C    0.5003188452    0.5007179412   -0.1835773087         -0.3076
C787       C    0.5011440282    0.4730657976   -0.1667681223          -0.307
C788       C    0.5006777304    0.4738336078   -0.1357115872         -0.3075
C789       C    0.4973345494    0.4948839887   -0.2153251481          0.6899
H790       H    0.5001875668    0.5506190976   -0.1777828833         -0.3078
H791       H    0.4995781828    0.5491851332   -0.1226686857          0.6915
H792       H    0.5011149044    0.4518045670   -0.1234180388         -0.3072
F793       F    0.5025806605    0.4445464643   -0.1795667010         -0.3057
C794       C    0.4963522579    0.5175395585   -0.2365008232          0.6891
C795       C    0.4924011812    0.5138732185   -0.2718847612          0.6859
H796       H    0.4982705695    0.5417082725   -0.2292289841          0.6907
H797       H    0.4954573154    0.4713186896   -0.2242090417          0.6883
C798       C    0.4989689267    0.4811621614   -0.2882194489          0.6915
N799       N    0.4995345125    0.4805386175   -0.3238278080         -0.3079
N800       N    0.5051431412    0.5048153465   -0.3193244385         -0.3031
N801       N    0.5004671624    0.5231130690   -0.2944020295         -0.3072
C802       C    0.5000661865    0.4798855937   -0.3559384105         -0.3073
H803       H    0.4803676193    0.4652942878   -0.2809096322          0.6757
H804       H    0.5204454461    0.4709428679   -0.2786347907         -0.2902
H805       H    0.5037322057    0.5348711284   -0.2811934297         -0.3044
C806       C    0.5000000000    0.5000000000   -0.3807322109         -0.3073
H807       H    0.5001417366    0.5247718877   -0.3756016898         -0.3072
H808       H    0.5004104024    0.4550286722   -0.3495070242          -0.307
C757       C    0.5000000000    0.5000000000    0.1192677891          0.6919
C758       C    0.4729775025    0.5001473011    0.1350730594          0.6918
C759       C    0.4720060080    0.4998457392    0.1663001408         -0.3078
C760       C    0.4992820465    0.4996811824    0.1835773087         -0.3076
C761       C    0.5269341584    0.4988549359    0.1667681223          -0.307
C762       C    0.5261663661    0.4993212634    0.1357115872         -0.3075
C763       C    0.5051161138    0.5026652539    0.2153251481          0.6899
H764       H    0.4493808952    0.4998143799    0.1777828833         -0.3078
H765       H    0.4508148831    0.5004237087    0.1226686857          0.6915
H766       H    0.5481953901    0.4988832421    0.1234180388         -0.3072
F767       F    0.5554534364    0.4974172069    0.1795667010         -0.3057
C768       C    0.4824605818    0.5036484166    0.2365008232          0.6891
C769       C    0.4861270738    0.5075993523    0.2718847612          0.6859
H770       H    0.4582917941    0.5017310345    0.2292289841          0.6907
H771       H    0.5286814851    0.5045415816    0.2242090417          0.6883
C772       C    0.5188378782    0.5010303489    0.2882194489          0.6915
N773       N    0.5194614004    0.5004647391    0.3238278080         -0.3079
N774       N    0.4951844557    0.4948570440    0.3193244385         -0.3031
N775       N    0.4768869131    0.4995337265    0.2944020295         -0.3072
C776       C    0.5201144037    0.4999330399    0.3559384105         -0.3073
H777       H    0.5347064672    0.5196310460    0.2809096322          0.6757
H778       H    0.5290563458    0.4795534364    0.2786347907         -0.2902
H779       H    0.4651287281    0.4962691353    0.2811934297         -0.3044
C780       C    0.5000000000    0.5000000000    0.3807322109         -0.3073
H781       H    0.4752281068    0.4998592161    0.3756016898         -0.3072
H782       H    0.5449713120    0.4995878681    0.3495070242          -0.307
C731       C    0.5000000000    0.8807322109    0.5000000000          0.6919
C732       C    0.5007543387    0.8649269406    0.4729876317          0.6918
C733       C    0.5010881450    0.8336998592    0.4720267391         -0.3078
C734       C    0.5003425934    0.8164226913    0.4992930830         -0.3076
C735       C    0.5002458160    0.8332318777    0.5269573670          -0.307
C736       C    0.4998053642    0.8642884128    0.5261744439         -0.3075
C737       C    0.4971655398    0.7846748519    0.5050243441          0.6899
H738       H    0.5018743337    0.8222171167    0.4494152682         -0.3078
H739       H    0.5012175016    0.8773313143    0.4508281285          0.6915
H740       H    0.4995081822    0.8765819612    0.5482058180         -0.3072
F741       F    0.5007312493    0.8204332990    0.5555087354         -0.3057
C742       C    0.4969387862    0.7634991768    0.4823486232          0.6891
C743       C    0.4928677240    0.7281152388    0.4858812580          0.6859
H744       H    0.4996614498    0.7707710159    0.4582572604          0.6907
H745       H    0.4945040397    0.7757909583    0.5285139961          0.6883
C746       C    0.4983417322    0.7117805511    0.5187930152          0.6915
N747       N    0.4988862244    0.6761721920    0.5194350609         -0.3079
N748       N    0.5053007550    0.6806755615    0.4953587222         -0.3031
N749       N    0.5012371412    0.7055979705    0.4769153367         -0.3072
C750       C    0.4993958413    0.6440615895    0.5201054399         -0.3073
H751       H    0.4792219629    0.7190903678    0.5340321907          0.6757
H752       H    0.5194657672    0.7213652093    0.5297223333         -0.2902
H753       H    0.5048922060    0.7188065703    0.4652726149         -0.3044
C754       C    0.5000000000    0.6192677891    0.5000000000         -0.3073
H755       H    0.5009671759    0.6243983102    0.4752465945         -0.3072
H756       H    0.4989115141    0.6504929758    0.5449600262          -0.307
C705       C    0.5000000000    1.1192677891    0.5000000000          0.6919
C706       C    0.4786382897    1.1350730594    0.5165503595          0.6918
C707       C    0.4780595644    1.1663001408    0.5173869109         -0.3078
C708       C    0.4996314931    1.1835773087    0.5006937612         -0.3076
C709       C    0.5219075509    1.1667681223    0.4842895171          -0.307
C710       C    0.5210155697    1.1357115872    0.4843959868         -0.3075
C711       C    0.5023833550    1.2153251481    0.4947466375          0.6899
H712       H    0.4602694622    1.1777828833    0.5313657869         -0.3078
H713       H    0.4610224235    1.1226686857    0.5300017297          0.6915
H714       H    0.5386259520    1.1234180388    0.4711542273         -0.3072
F715       F    0.5452433379    1.1795667010    0.4678317732         -0.3057
C716       C    0.4839435949    1.2365008232    0.5079456899          0.6891
C717       C    0.4843929216    1.2718847612    0.5025743621          0.6859
H718       H    0.4661016003    1.2292289841    0.5243612279          0.6907
H719       H    0.5197756886    1.2242090417    0.4787355768          0.6883
C720       C    0.5141928326    1.2882194489    0.4875705681          0.6915
N721       N    0.5150324841    1.3238278080    0.4876312285         -0.3079
N722       N    0.4993813790    1.3193244385    0.5070183168         -0.3031
N723       N    0.4820940234    1.2944020295    0.5146221817         -0.3072
C724       C    0.5158744272    1.3559384105    0.4876470133         -0.3073
H725       H    0.5152117468    1.2809096322    0.4631418993          0.6757
H726       H    0.5354823692    1.2786347907    0.4981738922         -0.2902
H727       H    0.4748519821    1.2811934297    0.5244438572         -0.3044
C728       C    0.5000000000    1.3807322109    0.5000000000         -0.3073
H729       H    0.4805875398    1.3756016898    0.5153890513         -0.3072
H730       H    0.5356535239    1.3495070242    0.4725880502          -0.307
C679       C    0.5000000000    0.6192677891    0.0000000000          0.6919
C680       C    0.4907055389    0.6350730594   -0.0253742007          0.6918
C681       C    0.4900838345    0.6663001408   -0.0261793248         -0.3078
C682       C    0.4994506265    0.6835773087   -0.0005615075         -0.3076
C683       C    0.5083286217    0.6667681223    0.0256396982          -0.307
C684       C    0.5084976108    0.6357115872    0.0247574233         -0.3075
C685       C    0.5042834447    0.7153251481    0.0038639746          0.6899
H686       H    0.4821569057    0.6777828833   -0.0473703727         -0.3078
H687       H    0.4832284569    0.6226686857   -0.0462392755          0.6915
H688       H    0.5157766118    0.6234180388    0.0455537188         -0.3072
F689       F    0.5169362903    0.6795667010    0.0528669699         -0.3057
C690       C    0.4972966065    0.7365008232   -0.0177097091          0.6891
C691       C    0.5022788575    0.7718847612   -0.0156529565          0.6859
H692       H    0.4870634491    0.7292289841   -0.0396889981          0.6907
H693       H    0.5142675010    0.7242090417    0.0252921325          0.6883
C694       C    0.5075411065    0.7882194489    0.0172933220          0.6915
N695       N    0.5072287207    0.8238278080    0.0180750570         -0.3079
N696       N    0.4934996175    0.8193244385   -0.0027174420         -0.3031
N697       N    0.4914951804    0.7944020295   -0.0214965170         -0.3072
C698       C    0.5069584033    0.8559384105    0.0188725818         -0.3073
H699       H    0.5305109243    0.7809096322    0.0256710017          0.6757
H700       H    0.4909819582    0.7786347907    0.0343657986         -0.2902
H701       H    0.4843316094    0.7811934297   -0.0313755716         -0.3044
C702       C    0.5000000000    0.8807322109    0.0000000000         -0.3073
H703       H    0.4912211724    0.8756016898   -0.0231646001         -0.3072
H704       H    0.5153115173    0.8495070242    0.0422864777          -0.307
C653       C    0.5000000000    1.1192677891    0.0000000000          0.6919
C654       C    0.4847659358    1.1350730594    0.0223195062          0.6918
C655       C    0.4844726386    1.1663001408    0.0232935277         -0.3078
C656       C    0.4998627972    1.1835773087    0.0007734839         -0.3076
C657       C    0.5160118158    1.1667681223   -0.0216882875          -0.307
C658       C    0.5151958494    1.1357115872   -0.0213125681         -0.3075
C659       C    0.5006515961    1.2153251481   -0.0057318078          0.6899
H660       H    0.4718458609    1.1777828833    0.0420674776         -0.3078
H661       H    0.4721426595    1.1226686857    0.0405379308          0.6915
H662       H    0.5278783935    1.1234180388   -0.0393298608         -0.3072
F663       F    0.5331527092    1.1795667010   -0.0445269841         -0.3057
C664       C    0.4871667593    1.2365008232    0.0125000027          0.6891
C665       C    0.4859418336    1.2718847612    0.0072509444          0.6859
H666       H    0.4752402322    1.2292289841    0.0336084040          0.6907
H667       H    0.5122747056    1.2242090417   -0.0263170127          0.6883
C668       C    0.5096806494    1.2882194489   -0.0161929707          0.6915
N669       N    0.5104982408    1.3238278080   -0.0163935666         -0.3079
N670       N    0.5015705295    1.3193244385    0.0068682531         -0.3031
N671       N    0.4874608772    1.2944020295    0.0194217042         -0.3072
C672       C    0.5113042068    1.3559384105   -0.0166375668         -0.3073
H673       H    0.5031347963    1.2809096322   -0.0397503444          0.6757
H674       H    0.5331997279    1.2786347907   -0.0126535079         -0.2902
H675       H    0.4835916522    1.2811934297    0.0309950170         -0.3044
C676       C    0.5000000000    1.3807322109    0.0000000000         -0.3073
H677       H    0.4862633795    1.3756016898    0.0206148434         -0.3072
H678       H    0.5254912323    1.3495070242   -0.0370511246          -0.307
C627       C    0.5000000000    1.0000000000   -0.1192677891          0.6919
C628       C    0.5001462619    0.9729774968   -0.1350730594          0.6918
C629       C    0.4998446627    0.9720060139   -0.1663001408         -0.3078
C630       C    0.4996811548    0.9992820588   -0.1835773087         -0.3076
C631       C    0.4988559718    1.0269342024   -0.1667681223          -0.307
C632       C    0.4993222696    1.0261663922   -0.1357115872         -0.3075
C633       C    0.5026654506    1.0051160113   -0.2153251481          0.6899
H634       H    0.4998124332    0.9493809024   -0.1777828833         -0.3078
H635       H    0.5004218172    0.9508148668   -0.1226686857          0.6915
H636       H    0.4988850956    1.0481954330   -0.1234180388         -0.3072
F637       F    0.4974193395    1.0554535357   -0.1795667010         -0.3057
C638       C    0.5036477421    0.9824604415   -0.2365008232          0.6891
C639       C    0.5075988188    0.9861267815   -0.2718847612          0.6859
H640       H    0.5017294305    0.9582917275   -0.2292289841          0.6907
H641       H    0.5045426846    1.0286813104   -0.2242090417          0.6883
C642       C    0.5010310733    1.0188378386   -0.2882194489          0.6915
N643       N    0.5004654875    1.0194613825   -0.3238278080         -0.3079
N644       N    0.4948568588    0.9951846535   -0.3193244385         -0.3031
N645       N    0.4995328376    0.9768869310   -0.2944020295         -0.3072
C646       C    0.4999338135    1.0201144063   -0.3559384105         -0.3073
H647       H    0.5196323807    1.0347057122   -0.2809096322          0.6757
H648       H    0.4795545539    1.0290571321   -0.2786347907         -0.2902
H649       H    0.4962677943    0.9651288716   -0.2811934297         -0.3044
C650       C    0.5000000000    1.0000000000   -0.3807322109         -0.3073
H651       H    0.4998582634    0.9752281123   -0.3756016898         -0.3072
H652       H    0.4995895976    1.0449713278   -0.3495070242          -0.307
C601       C    0.5000000000    1.0000000000    0.1192677891          0.6919
C602       C    0.4999049917    0.9729772680    0.1350730594          0.6918
C603       C    0.5002084331    0.9720063589    0.1663001408         -0.3078
C604       C    0.5003202064    0.9992826648    0.1835773087         -0.3076
C605       C    0.5010929403    1.0269363239    0.1667681223          -0.307
C606       C    0.5006280995    1.0261676306    0.1357115872         -0.3075
C607       C    0.4973248507    1.0051109465    0.2153251481          0.6899
H608       H    0.5002835753    0.9493813492    0.1777828833         -0.3078
H609       H    0.4996714726    0.9508141552    0.1226686857          0.6915
H610       H    0.5010234905    1.0481974610    0.1234180388         -0.3072
F611       F    0.5024754775    1.0554583307    0.1795667010         -0.3057
C612       C    0.4963855316    0.9824535544    0.2365008232          0.6891
C613       C    0.4924275081    0.9861123938    0.2718847612          0.6859
H614       H    0.4983496804    0.9582885224    0.2292289841          0.6907
H615       H    0.4954029239    1.0286726428    0.2242090417          0.6883
C616       C    0.4989331989    1.0188358490    0.2882194489          0.6915
N617       N    0.4994976011    1.0194604646    0.3238278080         -0.3079
N618       N    0.5051522652    0.9951944171    0.3193244385         -0.3031
N619       N    0.5005109999    0.9768878587    0.2944020295         -0.3072
C620       C    0.5000280355    1.0201144956    0.3559384105         -0.3073
H621       H    0.4803018286    1.0346684132    0.2809096322          0.6757
H622       H    0.5203902969    1.0290958585    0.2786347907         -0.2902
H623       H    0.5037983388    0.9651360131    0.2811934297         -0.3044
C624       C    0.5000000000    1.0000000000    0.3807322109         -0.3073
H625       H    0.5001887210    0.9752284257    0.3756016898         -0.3072
H626       H    0.5003251049    1.0449720253    0.3495070242          -0.307
C575       C    0.8807322109    0.5000000000    0.5000000000          0.6919
C576       C    0.8649269406    0.4808764739    0.5190926117          0.6918
C577       C    0.8336998592    0.4804069439    0.5199949878         -0.3078
C578       C    0.8164226913    0.4997211745    0.5007344101         -0.3076
C579       C    0.8332318777    0.5197701440    0.4816723851          -0.307
C580       C    0.8642884128    0.5188984885    0.4818896015         -0.3075
C581       C    0.7846748519    0.5017074592    0.4944897567          0.6899
H582       H    0.8222171167    0.4645052879    0.5360895225         -0.3078
H583       H    0.8773313143    0.4650816965    0.5346419881          0.6915
H584       H    0.8765819612    0.5347140465    0.4665488752         -0.3072
F585       F    0.8204332990    0.5408638254    0.4624247128         -0.3057
C586       C    0.7634991768    0.4850636959    0.5098918630          0.6891
C587       C    0.7281152388    0.4848375623    0.5045065200          0.6859
H588       H    0.7707710159    0.4694153715    0.5284104105          0.6907
H589       H    0.7757909583    0.5169602533    0.4764287599          0.6883
C590       C    0.7117805511    0.5125264731    0.4858927414          0.6915
N591       N    0.6761721920    0.5133671173    0.4858478884         -0.3079
N592       N    0.6806755615    0.5002642006    0.5070405725         -0.3031
N593       N    0.7055979705    0.4840638547    0.5167472825         -0.3072
C594       C    0.6440615895    0.5142044212    0.4857582256         -0.3073
H595       H    0.7190903678    0.5104814589    0.4615285060          0.6757
H596       H    0.7213652093    0.5349752048    0.4937495407         -0.2902
H597       H    0.7188065703    0.4781073527    0.5273977545         -0.3044
C598       C    0.6192677891    0.5000000000    0.5000000000         -0.3073
H599       H    0.6243983102    0.4826651372    0.5176965828         -0.3072
H600       H    0.6504929758    0.5319443330    0.4683432733          -0.307
C549       C    1.1192677891    0.5000000000    0.5000000000          0.6919
C550       C    1.1350730594    0.5189316307    0.4807170949          0.6918
C551       C    1.1663001408    0.5198300391    0.4802400168         -0.3078
C552       C    1.1835773087    0.5007320470    0.4997150278         -0.3076
C553       C    1.1667681223    0.4818387596    0.5199230874          -0.307
C554       C    1.1357115872    0.4820486615    0.5190496416         -0.3075
C555       C    1.2153251481    0.4945042637    0.5017535909          0.6899
H556       H    1.1777828833    0.5357907068    0.4642040012         -0.3078
H557       H    1.1226686857    0.5343480552    0.4647925241          0.6915
H558       H    1.1234180388    0.4668410540    0.5349932433         -0.3072
F559       F    1.1795667010    0.4627685893    0.5411773784         -0.3057
C560       C    1.2365008232    0.5097663063    0.4849812985          0.6891
C561       C    1.2718847612    0.5043792569    0.4848003175          0.6859
H562       H    1.2292289841    0.5281530252    0.4691782853          0.6907
H563       H    1.2242090417    0.4765717638    0.5171572521          0.6883
C564       C    1.2882194489    0.4859982449    0.5126442923          0.6915
N565       N    1.3238278080    0.4859604405    0.5134852829         -0.3079
N566       N    1.3193244385    0.5070425399    0.5002051710         -0.3031
N567       N    1.2944020295    0.5166131033    0.4839240243         -0.3072
C568       C    1.3559384105    0.4858777999    0.5143233091         -0.3073
H569       H    1.2809096322    0.4616177225    0.5108035923          0.6757
H570       H    1.2786347907    0.4940429530    0.5350263727         -0.2902
H571       H    1.2811934297    0.5272132686    0.4778784500         -0.3044
C572       C    1.3807322109    0.5000000000    0.5000000000         -0.3073
H573       H    1.3756016898    0.5175506451    0.4825173981         -0.3072
H574       H    1.3495070242    0.4686121709    0.5322085849          -0.307
C523       C    0.8807322109    0.5000000000    0.0000000000          0.6919
C524       C    0.8649269406    0.4888165943    0.0246001729          0.6918
C525       C    0.8336998592    0.4886945706    0.0256100498         -0.3078
C526       C    0.8164226913    0.4999973917    0.0007855540         -0.3076
C527       C    0.8332318777    0.5120578318   -0.0241115896          -0.307
C528       C    0.8642884128    0.5113183315   -0.0236015841         -0.3075
C529       C    0.7846748519    0.4996596025   -0.0057586741          0.6899
H530       H    0.8222171167    0.4794722145    0.0462702739         -0.3078
H531       H    0.8773313143    0.4795024786    0.0447124912          0.6915
H532       H    0.8765819612    0.5207253094   -0.0435259041         -0.3072
F533       F    0.8204332990    0.5250308710   -0.0495500750         -0.3057
C534       C    0.7634991768    0.4894989682    0.0145144915          0.6891
C535       C    0.7281152388    0.4873925506    0.0095530340          0.6859
H536       H    0.7707710159    0.4813665944    0.0373546131          0.6907
H537       H    0.7757909583    0.5075827166   -0.0280313389          0.6883
C538       C    0.7117805511    0.5067621629   -0.0176125077          0.6915
N539       N    0.6761721920    0.5075332778   -0.0179502594         -0.3079
N540       N    0.6806755615    0.5027244153    0.0064974629         -0.3031
N541       N    0.7055979705    0.4909750180    0.0212833714         -0.3072
C542       C    0.6440615895    0.5082855004   -0.0183287807         -0.3073
H543       H    0.7190903678    0.4962757551   -0.0396994563          0.6757
H544       H    0.7213652093    0.5305398664   -0.0181562593         -0.2902
H545       H    0.7188065703    0.4891465480    0.0333485762         -0.3044
C546       C    0.6192677891    0.5000000000    0.0000000000         -0.3073
H547       H    0.6243983102    0.4899997261    0.0226640913         -0.3072
H548       H    0.6504929758    0.5187640126   -0.0408717578          -0.307
C497       C    1.1192677891    0.5000000000    0.0000000000          0.6919
C498       C    1.1350730594    0.4858547557    0.0230249676          0.6918
C499       C    1.1663001408    0.4850856357    0.0236906970         -0.3078
C500       C    1.1835773087    0.4993501193    0.0004413128         -0.3076
C501       C    1.1667681223    0.5132513050   -0.0234768605          -0.307
C502       C    1.1357115872    0.5132418406   -0.0225785973         -0.3075
C503       C    1.2153251481    0.5049650737   -0.0029370463          0.6899
H504       H    1.1777828833    0.4731108933    0.0428871095         -0.3078
H505       H    1.1226686857    0.4743856037    0.0419911653          0.6915
H506       H    1.1234180388    0.5245032017   -0.0415166940         -0.3072
F507       F    1.1795667010    0.5270911694   -0.0484543391         -0.3057
C508       C    1.2365008232    0.4938357871    0.0168209576          0.6891
C509       C    1.2718847612    0.4991271146    0.0157938694          0.6859
H510       H    1.2292289841    0.4794442564    0.0363322491          0.6907
H511       H    1.2242090417    0.5190030830   -0.0219576043          0.6883
C512       C    1.2882194489    0.5108230688   -0.0154527815          0.6915
N513       N    1.3238278080    0.5106720361   -0.0162809623         -0.3079
N514       N    1.3193244385    0.4930896194    0.0013733548         -0.3031
N515       N    1.2944020295    0.4873982390    0.0193811202         -0.3072
C516       C    1.3559384105    0.5105653686   -0.0171162702         -0.3073
H517       H    1.2809096322    0.5349986115   -0.0191053402          0.6757
H518       H    1.2786347907    0.4979814116   -0.0354719395         -0.2902
H519       H    1.2811934297    0.4784165990    0.0276420288         -0.3044
C520       C    1.3807322109    0.5000000000    0.0000000000         -0.3073
H521       H    1.3756016898    0.4867986407    0.0209616465         -0.3072
H522       H    1.3495070242    0.5233989559   -0.0384067392          -0.307
C471       C    1.0000000000    0.5000000000   -0.1192677891          0.6919
C472       C    1.0270224975    0.5001473011   -0.1350730594          0.6918
C473       C    1.0279939920    0.4998457392   -0.1663001408         -0.3078
C474       C    1.0007179535    0.4996811824   -0.1835773087         -0.3076
C475       C    0.9730658416    0.4988549359   -0.1667681223          -0.307
C476       C    0.9738336339    0.4993212634   -0.1357115872         -0.3075
C477       C    0.9948838862    0.5026652539   -0.2153251481          0.6899
H478       H    1.0506191048    0.4998143799   -0.1777828833         -0.3078
H479       H    1.0491851169    0.5004237087   -0.1226686857          0.6915
H480       H    0.9518046099    0.4988832421   -0.1234180388         -0.3072
F481       F    0.9445465636    0.4974172069   -0.1795667010         -0.3057
C482       C    1.0175394182    0.5036484166   -0.2365008232          0.6891
C483       C    1.0138729262    0.5075993523   -0.2718847612          0.6859
H484       H    1.0417082059    0.5017310345   -0.2292289841          0.6907
H485       H    0.9713185149    0.5045415816   -0.2242090417          0.6883
C486       C    0.9811621218    0.5010303489   -0.2882194489          0.6915
N487       N    0.9805385996    0.5004647391   -0.3238278080         -0.3079
N488       N    1.0048155443    0.4948570440   -0.3193244385         -0.3031
N489       N    1.0231130869    0.4995337265   -0.2944020295         -0.3072
C490       C    0.9798855963    0.4999330399   -0.3559384105         -0.3073
H491       H    0.9652935328    0.5196310460   -0.2809096322          0.6757
H492       H    0.9709436542    0.4795534364   -0.2786347907         -0.2902
H493       H    1.0348712719    0.4962691353   -0.2811934297         -0.3044
C494       C    1.0000000000    0.5000000000   -0.3807322109         -0.3073
H495       H    1.0247718932    0.4998592161   -0.3756016898         -0.3072
H496       H    0.9550286880    0.4995878681   -0.3495070242          -0.307
C445       C    1.0000000000    0.5000000000    0.3807322109          0.6919
C446       C    1.0270224975    0.5001473011    0.3649269406          0.6918
C447       C    1.0279939920    0.4998457392    0.3336998592         -0.3078
C448       C    1.0007179535    0.4996811824    0.3164226913         -0.3076
C449       C    0.9730658416    0.4988549359    0.3332318777          -0.307
C450       C    0.9738336339    0.4993212634    0.3642884128         -0.3075
C451       C    0.9948838862    0.5026652539    0.2846748519          0.6899
H452       H    1.0506191048    0.4998143799    0.3222171167         -0.3078
H453       H    1.0491851169    0.5004237087    0.3773313143          0.6915
H454       H    0.9518046099    0.4988832421    0.3765819612         -0.3072
F455       F    0.9445465636    0.4974172069    0.3204332990         -0.3057
C456       C    1.0175394182    0.5036484166    0.2634991768          0.6891
C457       C    1.0138729262    0.5075993523    0.2281152388          0.6859
H458       H    1.0417082059    0.5017310345    0.2707710159          0.6907
H459       H    0.9713185149    0.5045415816    0.2757909583          0.6883
C460       C    0.9811621218    0.5010303489    0.2117805511          0.6915
N461       N    0.9805385996    0.5004647391    0.1761721920         -0.3079
N462       N    1.0048155443    0.4948570440    0.1806755615         -0.3031
N463       N    1.0231130869    0.4995337265    0.2055979705         -0.3072
C464       C    0.9798855963    0.4999330399    0.1440615895         -0.3073
H465       H    0.9652935328    0.5196310460    0.2190903678          0.6757
H466       H    0.9709436542    0.4795534364    0.2213652093         -0.2902
H467       H    1.0348712719    0.4962691353    0.2188065703         -0.3044
C468       C    1.0000000000    0.5000000000    0.1192677891         -0.3073
H469       H    1.0247718932    0.4998592161    0.1243983102         -0.3072
H470       H    0.9550286880    0.4995878681    0.1504929758          -0.307
C419       C    1.0000000000   -0.3807322109    0.5000000000          0.6919
C420       C    0.9729775025   -0.3649269406    0.4998526989          0.6918
C421       C    0.9720060080   -0.3336998592    0.5001542608         -0.3078
C422       C    0.9992820465   -0.3164226913    0.5003188176         -0.3076
C423       C    1.0269341584   -0.3332318777    0.5011450641          -0.307
C424       C    1.0261663661   -0.3642884128    0.5006787366         -0.3075
C425       C    1.0051161138   -0.2846748519    0.4973347461          0.6899
H426       H    0.9493808952   -0.3222171167    0.5001856201         -0.3078
H427       H    0.9508148831   -0.3773313143    0.4995762913          0.6915
H428       H    1.0481953901   -0.3765819612    0.5011167579         -0.3072
F429       F    1.0554534364   -0.3204332990    0.5025827931         -0.3057
C430       C    0.9824605818   -0.2634991768    0.4963515834          0.6891
C431       C    0.9861270738   -0.2281152388    0.4924006477          0.6859
H432       H    0.9582917941   -0.2707710159    0.4982689655          0.6907
H433       H    1.0286814851   -0.2757909583    0.4954584184          0.6883
C434       C    1.0188378782   -0.2117805511    0.4989696511          0.6915
N435       N    1.0194614004   -0.1761721920    0.4995352609         -0.3079
N436       N    0.9951844557   -0.1806755615    0.5051429560         -0.3031
N437       N    0.9768869131   -0.2055979705    0.5004662735         -0.3072
C438       C    1.0201144037   -0.1440615895    0.5000669601         -0.3073
H439       H    1.0347064672   -0.2190903678    0.4803689540          0.6757
H440       H    1.0290563458   -0.2213652093    0.5204465636         -0.2902
H441       H    0.9651287281   -0.2188065703    0.5037308647         -0.3044
C442       C    1.0000000000   -0.1192677891    0.5000000000         -0.3073
H443       H    0.9752281068   -0.1243983102    0.5001407839         -0.3072
H444       H    1.0449713120   -0.1504929758    0.5004121319          -0.307
C393       C    1.0000000000    0.1192677891    0.5000000000          0.6919
C394       C    1.0004426450    0.1350730594    0.4729807266          0.6918
C395       C    1.0001517195    0.1663001408    0.4720059941         -0.3078
C396       C    0.9996890486    0.1835773087    0.4992786047         -0.3076
C397       C    0.9985606172    0.1667681223    0.5269200341          -0.307
C398       C    0.9990353086    0.1357115872    0.5261573846         -0.3075
C399       C    1.0026091761    0.2153251481    0.5051449391          0.6899
H400       H    1.0003676518    0.1777828833    0.4493818901         -0.3078
H401       H    1.0009612709    0.1226686857    0.4508224521          0.6915
H402       H    0.9983565389    0.1234180388    0.5481803052         -0.3072
F403       F    0.9968112617    0.1795667010    0.5554218944         -0.3057
C404       C    1.0038399024    0.2365008232    0.4825015063          0.6891
C405       C    1.0077505278    0.2718847612    0.4862109625          0.6859
H406       H    1.0021867968    0.2292289841    0.4583132054          0.6907
H407       H    1.0042278251    0.2242090417    0.5287294108          0.6883
C408       C    1.0008243916    0.2882194489    0.5188480145          0.6915
N409       N    1.0002520005    0.3238278080    0.5194653174         -0.3079
N410       N    0.9949099845    0.3193244385    0.4951285314         -0.3031
N411       N    0.9997863776    0.2944020295    0.4768831974         -0.3072
C412       C    0.9997131959    0.3559384105    0.5201124703         -0.3073
H413       H    1.0192505358    0.2809096322    0.5349189591          0.6757
H414       H    0.9792370753    0.2786347907    0.5288311316         -0.2902
H415       H    0.9966504971    0.2811934297    0.4650900331         -0.3044
C416       C    1.0000000000    0.3807322109    0.5000000000         -0.3073
H417       H    1.0001299784    0.3756016898    0.4752280478         -0.3072
H418       H    0.9990963616    0.3495070242    0.5449641212          -0.307
C367       C    0.8807322109   -0.0000000000    0.5000000000          0.6919
C368       C    0.8649269406   -0.0267454756    0.4961377982          0.6918
C369       C    0.8336998592   -0.0277492118    0.4963028888         -0.3078
C370       C    0.8164226913   -0.0007549774    0.5002170509         -0.3076
C371       C    0.8332318777    0.0265207574    0.5048383352          -0.307
C372       C    0.8642884128    0.0258243928    0.5042708472         -0.3075
C373       C    0.7846748519    0.0054340433    0.4980636705          0.6899
H374       H    0.8222171167   -0.0501636565    0.4932224053         -0.3078
H375       H    0.8773313143   -0.0486594956    0.4928160770          0.6915
H376       H    0.8765819612    0.0475838606    0.5077342736         -0.3072
F377       F    0.8204332990    0.0545713238    0.5101845499         -0.3057
C378       C    0.7634991768   -0.0168710083    0.4939741213          0.6891
C379       C    0.7281152388   -0.0126959978    0.4905649654          0.6859
H380       H    0.7707710159   -0.0410738377    0.4925494442          0.6907
H381       H    0.7757909583    0.0290335438    0.4994460264          0.6883
C382       C    0.7117805511    0.0188005831    0.5015701424          0.6915
N383       N    0.6761721920    0.0193403945    0.5022161285         -0.3079
N384       N    0.6806755615   -0.0054770786    0.5044318250         -0.3031
N385       N    0.7055979705   -0.0229575943    0.4972831890         -0.3072
C386       C    0.6440615895    0.0199140706    0.5028325805         -0.3073
H387       H    0.7190903678    0.0370764734    0.4853285328          0.6757
H388       H    0.7213652093    0.0259683189    0.5242482908         -0.2902
H389       H    0.7188065703   -0.0350530213    0.4988997024         -0.3044
C390       C    0.6192677891   -0.0000000000    0.5000000000         -0.3073
H391       H    0.6243983102   -0.0245558754    0.4967326628         -0.3072
H392       H    0.6504929758    0.0444873217    0.5065929477          -0.307
C341       C    1.3807322109   -0.0000000000    0.5000000000          0.6919
C342       C    1.3649269406    0.0238894292    0.4873693926          0.6918
C343       C    1.3336998592    0.0246033827    0.4866448158         -0.3078
C344       C    1.3164226913    0.0004823131    0.4993799387         -0.3076
C345       C    1.3332318777   -0.0242827192    0.5117093813          -0.307
C346       C    1.3642884128   -0.0233857162    0.5117578773         -0.3075
C347       C    1.2846748519   -0.0032511921    0.5047652857          0.6899
H348       H    1.3222171167    0.0445322258    0.4759332369         -0.3078
H349       H    1.3773313143    0.0435559247    0.4771475016          0.6915
H350       H    1.3765819612   -0.0430107661    0.5217742227         -0.3072
F351       F    1.3204332990   -0.0501008953    0.5239093020         -0.3057
C352       C    1.2634991768    0.0171835384    0.4949336263          0.6891
C353       C    1.2281152388    0.0158172826    0.5001476843          0.6859
H354       H    1.2707710159    0.0375824949    0.4818306026          0.6907
H355       H    1.2757909583   -0.0231376338    0.5175471779          0.6883
C356       C    1.2117805511   -0.0161187217    0.5098037791          0.6915
N357       N    1.1761721920   -0.0169354358    0.5095996407         -0.3079
N358       N    1.1806755615    0.0018162351    0.4931925957         -0.3031
N359       N    1.2055979705    0.0201536106    0.4886746225         -0.3072
C360       C    1.1440615895   -0.0177621238    0.5094393155         -0.3073
H361       H    1.2190903678   -0.0213230691    0.5336933755          0.6757
H362       H    1.2213652093   -0.0352678646    0.4956975687         -0.2902
H363       H    1.2188065703    0.0289766589    0.4802445400         -0.3044
C364       C    1.1192677891   -0.0000000000    0.5000000000         -0.3073
H365       H    1.1243983102    0.0217695215    0.4881782215         -0.3072
H366       H    1.1504929758   -0.0398360606    0.5208728778          -0.307
C315       C   -0.0000000000   -0.1192677891   -0.0000000000          0.6919
C316       C   -0.0125194027   -0.1350730594    0.0239478940          0.6918
C317       C   -0.0132406523   -0.1663001408    0.0246652086         -0.3078
C318       C   -0.0006178122   -0.1835773087    0.0004851907         -0.3076
C319       C    0.0115963580   -0.1667681223   -0.0243368967          -0.307
C320       C    0.0116490239   -0.1357115872   -0.0234401289         -0.3075
C321       C    0.0047501186   -0.2153251481   -0.0032733120          0.6899
H322       H   -0.0238594610   -0.1777828833    0.0446436372         -0.3078
H323       H   -0.0226497485   -0.1226686857    0.0436617012          0.6915
H324       H    0.0215740190   -0.1234180388   -0.0431115353         -0.3072
F325       F    0.0236761114   -0.1795667010   -0.0502115144         -0.3057
C326       C   -0.0049864282   -0.2365008232    0.0172069076          0.6891
C327       C    0.0002212214   -0.2718847612    0.0158164250          0.6859
H328       H   -0.0179944701   -0.2292289841    0.0376665630          0.6907
H329       H    0.0174394153   -0.2242090417   -0.0232189652          0.6883
C330       C    0.0097287330   -0.2882194489   -0.0161641278          0.6915
N331       N    0.0095207997   -0.3238278080   -0.0169798840         -0.3079
N332       N   -0.0067988866   -0.3193244385    0.0018478649         -0.3031
N333       N   -0.0112315557   -0.2944020295    0.0202060475         -0.3072
C334       C    0.0093566327   -0.3559384105   -0.0178058177         -0.3073
H335       H    0.0335938748   -0.2809096322   -0.0214794880          0.6757
H336       H   -0.0044663543   -0.2786347907   -0.0352474803         -0.2902
H337       H   -0.0196205264   -0.2811934297    0.0290681940         -0.3044
C338       C    0.0000000000   -0.3807322109    0.0000000000         -0.3073
H339       H   -0.0117204385   -0.3756016898    0.0218242487         -0.3072
H340       H    0.0206874440   -0.3495070242   -0.0399326736          -0.307
C289       C    0.0000000000    0.1192677891    0.0000000000          0.6919
C290       C    0.0069690154    0.1350730594   -0.0261088088          0.6918
C291       C    0.0069226561    0.1663001408   -0.0271249741         -0.3078
C292       C   -0.0001271055    0.1835773087   -0.0007752071         -0.3076
C293       C   -0.0079120993    0.1667681223    0.0257712775          -0.307
C294       C   -0.0072669356    0.1357115872    0.0251461935         -0.3075
C295       C    0.0012863605    0.2153251481    0.0056234753          0.6899
H296       H    0.0126079273    0.1777828833   -0.0490241613         -0.3078
H297       H    0.0128352349    0.1226686857   -0.0474827548          0.6915
H298       H   -0.0132557776    0.1234180388    0.0463500500         -0.3072
F299       F   -0.0165078079    0.1795667010    0.0530023274         -0.3057
C300       C    0.0079609322    0.2365008232   -0.0160488533          0.6891
C301       C    0.0108574805    0.2718847612   -0.0115031889          0.6859
H302       H    0.0122113211    0.2292289841   -0.0399180981          0.6907
H303       H   -0.0028513146    0.2242090417    0.0288985044          0.6883
C304       C   -0.0037619432    0.2882194489    0.0184871592          0.6915
N305       N   -0.0044667232    0.3238278080    0.0189475716         -0.3079
N306       N   -0.0037596287    0.3193244385   -0.0059585783         -0.3031
N307       N    0.0053877368    0.2944020295   -0.0224812030         -0.3072
C308       C   -0.0051461400    0.3559384105    0.0194450756         -0.3073
H309       H    0.0102266753    0.2809096322    0.0385400044          0.6757
H310       H   -0.0271236653    0.2786347907    0.0229486377         -0.2902
H311       H    0.0051994155    0.2811934297   -0.0346827196         -0.3044
C312       C    0.0000000000    0.3807322109    0.0000000000         -0.3073
H313       H    0.0061217210    0.3756016898   -0.0240039797         -0.3072
H314       H   -0.0117595314    0.3495070242    0.0434085496          -0.307
C263       C   -0.1192677891   -0.0000000000    0.0000000000          0.6919
C264       C   -0.1350730594    0.0206341760   -0.0174490071          0.6918
C265       C   -0.1663001408    0.0211765861   -0.0183095491         -0.3078
C266       C   -0.1835773087    0.0003384923   -0.0007088899         -0.3076
C267       C   -0.1667681223   -0.0212154446    0.0166332489          -0.307
C268       C   -0.1357115872   -0.0203288344    0.0164887201         -0.3075
C269       C   -0.2153251481   -0.0021564484    0.0053505073          0.6899
H270       H   -0.1777828833    0.0383524245   -0.0330366426         -0.3078
H271       H   -0.1226686857    0.0376585032   -0.0316416244          0.6915
H272       H   -0.1234180388   -0.0373566494    0.0304716839         -0.3072
F273       F   -0.1795667010   -0.0438258521    0.0340741709         -0.3057
C274       C   -0.2365008232    0.0157018121   -0.0086252670          0.6891
C275       C   -0.2718847612    0.0154826678   -0.0032396351          0.6859
H276       H   -0.2292289841    0.0328252614   -0.0257890119          0.6907
H277       H   -0.2242090417   -0.0188479509    0.0220909099          0.6883
C278       C   -0.2882194489   -0.0136481428    0.0130251861          0.6915
N279       N   -0.3238278080   -0.0144896206    0.0130004993         -0.3079
N280       N   -0.3193244385    0.0003178298   -0.0070383555         -0.3031
N281       N   -0.2944020295    0.0172640879   -0.0153747672         -0.3072
C282       C   -0.3559384105   -0.0153314682    0.0130207450         -0.3073
H283       H   -0.2809096322   -0.0136211307    0.0374750801          0.6757
H284       H   -0.2786347907   -0.0353717736    0.0033422779         -0.2902
H285       H   -0.2811934297    0.0240793548   -0.0254972475         -0.3044
C286       C   -0.3807322109   -0.0000000000    0.0000000000         -0.3073
H287       H   -0.3756016898    0.0187363878   -0.0162053782         -0.3072
H288       H   -0.3495070242   -0.0344482772    0.0289120209          -0.307
C237       C    0.3807322109   -0.0000000000    0.0000000000          0.6919
C238       C    0.3649269406   -0.0153255965    0.0222567554          0.6918
C239       C    0.3336998592   -0.0156228913    0.0232295642         -0.3078
C240       C    0.3164226913   -0.0001403782    0.0007729139         -0.3076
C241       C    0.3332318777    0.0161007493   -0.0216223480          -0.307
C242       C    0.3642884128    0.0152832467   -0.0212499828         -0.3075
C243       C    0.2846748519    0.0006751297   -0.0057290835          0.6899
H244       H    0.3222171167   -0.0283266625    0.0419515007         -0.3078
H245       H    0.3773313143   -0.0280235850    0.0404231857          0.6915
H246       H    0.3765819612    0.0280396765   -0.0392150394         -0.3072
F247       F    0.3204332990    0.0333352910   -0.0443904585         -0.3057
C248       C    0.2634991768   -0.0128844669    0.0124471943          0.6891
C249       C    0.2281152388   -0.0140878257    0.0071931498          0.6859
H250       H    0.2707710159   -0.0248975805    0.0335064383          0.6907
H251       H    0.2757909583    0.0123826796   -0.0262663815          0.6883
C252       C    0.2117805511    0.0097470683   -0.0161530781          0.6915
N253       N    0.1761721920    0.0105654766   -0.0163503147         -0.3079
N254       N    0.1806755615    0.0015423100    0.0068746450         -0.3031
N255       N    0.2055979705   -0.0126187773    0.0193700454         -0.3072
C256       C    0.1440615895    0.0113724379   -0.0165910029         -0.3073
H257       H    0.2190903678    0.0032980148   -0.0397371354          0.6757
H258       H    0.2213652093    0.0332514128   -0.0125170580         -0.2902
H259       H    0.2188065703   -0.0165354983    0.0309273706         -0.3044
C260       C    0.1192677891   -0.0000000000    0.0000000000         -0.3073
H261       H    0.1243983102   -0.0138211648    0.0205582566         -0.3072
H262       H    0.1504929758    0.0256431772   -0.0369461259          -0.307
C211       C   -0.0000000000    0.0000000000   -0.1192677891          0.6919
C212       C    0.0270224482    0.0001560833   -0.1350730594          0.6918
C213       C    0.0279940407   -0.0001451629   -0.1663001408         -0.3078
C214       C    0.0007180571   -0.0003185843   -0.1835773087         -0.3076
C215       C   -0.0269337849   -0.0011538175   -0.1667681223          -0.307
C216       C   -0.0261661441   -0.0006872405   -0.1357115872         -0.3075
C217       C   -0.0051169797    0.0026635910   -0.2153251481          0.6899
H218       H    0.0506191624   -0.0001691692   -0.1777828833         -0.3078
H219       H    0.0491849766    0.0004396936   -0.1226686857          0.6915
H220       H   -0.0481950246   -0.0011324211   -0.1234180388         -0.3072
F221       F   -0.0554525941   -0.0026008150   -0.1795667010         -0.3057
C222       C    0.0175382315    0.0036541166   -0.2365008232          0.6891
C223       C    0.0138704558    0.0076038605   -0.2718847612          0.6859
H224       H    0.0417076411    0.0017445893   -0.2292289841          0.6907
H225       H   -0.0286829596    0.0045322601   -0.2242090417          0.6883
C226       C   -0.0188382121    0.0010242266   -0.2882194489          0.6915
N227       N   -0.0194615504    0.0004584142   -0.3238278080         -0.3079
N228       N    0.0048172155   -0.0051413907   -0.3193244385         -0.3031
N229       N    0.0231132372   -0.0004587619   -0.2944020295         -0.3072
C230       C   -0.0201143809   -0.0000734971   -0.3559384105         -0.3073
H231       H   -0.0347128453    0.0196197655   -0.2809096322          0.6757
H232       H   -0.0290496992   -0.0204560057   -0.2786347907         -0.2902
H233       H    0.0348724826   -0.0037195315   -0.2811934297         -0.3044
C234       C    0.0000000000    0.0000000000   -0.3807322109         -0.3073
H235       H    0.0247719376   -0.0001327332   -0.3756016898         -0.3072
H236       H   -0.0449711757   -0.0004267473   -0.3495070242          -0.307
C185       C   -0.0000000000   -0.0000000000    0.1192677891          0.6919
C186       C   -0.0267943139    0.0035073940    0.1350730594          0.6918
C187       C   -0.0277957739    0.0033290150    0.1663001408         -0.3078
C188       C   -0.0007520344   -0.0002270378    0.1835773087         -0.3076
C189       C    0.0265825525   -0.0044864199    0.1667681223          -0.307
C190       C    0.0258787279   -0.0039282110    0.1357115872         -0.3075
C191       C    0.0054079030    0.0020081790    0.2153251481          0.6899
H192       H   -0.0502490768    0.0061121602    0.1777828833         -0.3078
H193       H   -0.0487504332    0.0065383880    0.1226686857          0.6915
H194       H    0.0476821868   -0.0071029461    0.1234180388         -0.3072
F195       F    0.0547015107   -0.0094603995    0.1795667010         -0.3057
C196       C   -0.0169493899    0.0058017511    0.2365008232          0.6891
C197       C   -0.0128199291    0.0092659407    0.2718847612          0.6859
H198       H   -0.0411689754    0.0069055332    0.2292289841          0.6907
H199       H    0.0290236517    0.0009387183    0.2242090417          0.6883
C200       C    0.0188197416   -0.0013208328    0.2882194489          0.6915
N201       N    0.0193680671   -0.0019596078    0.3238278080         -0.3079
N202       N   -0.0054178608   -0.0045040257    0.3193244385         -0.3031
N203       N   -0.0229915849    0.0024123061    0.2944020295         -0.3072
C204       C    0.0199498629   -0.0025684025    0.3559384105         -0.3073
H205       H    0.0368787700    0.0151615682    0.2809096322          0.6757
H206       H    0.0262874105   -0.0239019924    0.2786347907         -0.2902
H207       H   -0.0350645253    0.0006356291    0.2811934297         -0.3044
C208       C   -0.0000000000    0.0000000000    0.3807322109         -0.3073
H209       H   -0.0245970220    0.0029416012    0.3756016898         -0.3072
H210       H    0.0445707934   -0.0060027601    0.3495070242          -0.307
loop_
_geom_bond_atom_site_label_1
_geom_bond_atom_site_label_2
_geom_bond_distance
_geom_bond_site_symmetry_2
_ccdc_geom_bond_type
Zn1          O5 1.942       .   S
Zn1          O6 1.922       .   S
Zn1         O10 1.922       .   S
Zn1         O17 1.922       .   S
Zn2          O5 1.942       .   S
Zn2          O7 1.922       .   S
Zn2          O9 1.922       .   S
Zn2         O13 1.922       .   S
Zn3          O5 1.942       .   S
Zn3          O8 1.922       .   S
Zn3         O11 1.922       .   S
Zn3         O14 1.922       .   S
Zn4          O5 1.942       .   S
Zn4         O12 1.922       .   S
Zn4         O15 1.922       .   S
Zn4         O16 1.922       .   S
O6          C18 1.304       .   A
O7          C19 1.304       .   A
O8          C20 1.304       .   A
O9          C18 1.304       .   A
O10         C20 1.304       .   A
O11         C19 1.304       .   A
O12         C21 1.304       .   A
O13         C22 1.304       .   A
O14         C21 1.304       .   A
O15         C22 1.304       .   A
O16         C23 1.304       .   A
O17         C23 1.304       .   A
C18        C185 1.540       .   S
C19        C260 1.540       .   S
C20        C315 1.540       .   S
C21        C211 1.540       .   S
C22        C289 1.540       .   S
C23        C263 1.540       .   S
Zn24        O28 1.942       .   S
Zn24        O29 1.922       .   S
Zn24        O33 1.922       .   S
Zn24        O40 1.922       .   S
Zn25        O28 1.942       .   S
Zn25        O30 1.922       .   S
Zn25        O32 1.922       .   S
Zn25        O36 1.922       .   S
Zn26        O28 1.942       .   S
Zn26        O31 1.922       .   S
Zn26        O34 1.922       .   S
Zn26        O37 1.922       .   S
Zn27        O28 1.942       .   S
Zn27        O35 1.922       .   S
Zn27        O38 1.922       .   S
Zn27        O39 1.922       .   S
O29         C41 1.304       .   A
O30         C42 1.304       .   A
O31         C43 1.304       .   A
O32         C41 1.304       .   A
O33         C43 1.304       .   A
O34         C42 1.304       .   A
O35         C44 1.304       .   A
O36         C45 1.304       .   A
O37         C44 1.304       .   A
O38         C45 1.304       .   A
O39         C46 1.304       .   A
O40         C46 1.304       .   A
C41        C208 1.540   1_655   S
C42        C364 1.540       .   S
C43        C393 1.540       .   S
C44        C234 1.540   1_656   S
C45        C442 1.540       .   S
C46        C367 1.540       .   S
Zn47        O51 1.942       .   S
Zn47        O52 1.922       .   S
Zn47        O56 1.922       .   S
Zn47        O63 1.922       .   S
Zn48        O51 1.942       .   S
Zn48        O53 1.922       .   S
Zn48        O55 1.922       .   S
Zn48        O59 1.922       .   S
Zn49        O51 1.942       .   S
Zn49        O54 1.922       .   S
Zn49        O57 1.922       .   S
Zn49        O60 1.922       .   S
Zn50        O51 1.942       .   S
Zn50        O58 1.922       .   S
Zn50        O61 1.922       .   S
Zn50        O62 1.922       .   S
O52         C64 1.304       .   A
O53         C65 1.304       .   A
O54         C66 1.304       .   A
O55         C64 1.304       .   A
O56         C66 1.304       .   A
O57         C65 1.304       .   A
O58         C67 1.304       .   A
O59         C68 1.304       .   A
O60         C67 1.304       .   A
O61         C68 1.304       .   A
O62         C69 1.304       .   A
O63         C69 1.304       .   A
C64        C312 1.540   1_655   S
C65        C468 1.540       .   S
C66        C497 1.540       .   S
C67        C338 1.540   1_665   S
C68        C523 1.540       .   S
C69        C471 1.540       .   S
Zn70        O74 1.942       .   S
Zn70        O75 1.922       .   S
Zn70        O79 1.922       .   S
Zn70        O86 1.922       .   S
Zn71        O74 1.942       .   S
Zn71        O76 1.922       .   S
Zn71        O78 1.922       .   S
Zn71        O82 1.922       .   S
Zn72        O74 1.942       .   S
Zn72        O77 1.922       .   S
Zn72        O80 1.922       .   S
Zn72        O83 1.922       .   S
Zn73        O74 1.942       .   S
Zn73        O81 1.922       .   S
Zn73        O84 1.922       .   S
Zn73        O85 1.922       .   S
O75         C87 1.304       .   A
O76         C88 1.304       .   A
O77         C89 1.304       .   A
O78         C87 1.304       .   A
O79         C89 1.304       .   A
O80         C88 1.304       .   A
O81         C90 1.304       .   A
O82         C91 1.304       .   A
O83         C90 1.304       .   A
O84         C91 1.304       .   A
O85         C92 1.304       .   A
O86         C92 1.304       .   A
C87        C416 1.540       .   S
C88        C445 1.540       .   S
C89        C575 1.540       .   S
C90        C419 1.540   1_565   S
C91        C549 1.540       .   S
C92        C494 1.540   1_556   S
Zn93        O97 1.942       .   S
Zn93        O98 1.922       .   S
Zn93       O102 1.922       .   S
Zn93       O109 1.922       .   S
Zn94        O97 1.942       .   S
Zn94        O99 1.922       .   S
Zn94       O101 1.922       .   S
Zn94       O105 1.922       .   S
Zn95        O97 1.942       .   S
Zn95       O100 1.922       .   S
Zn95       O103 1.922       .   S
Zn95       O106 1.922       .   S
Zn96        O97 1.942       .   S
Zn96       O104 1.922       .   S
Zn96       O107 1.922       .   S
Zn96       O108 1.922       .   S
O98        C110 1.304       .   A
O99        C111 1.304       .   A
O100       C112 1.304       .   A
O101       C110 1.304       .   A
O102       C112 1.304       .   A
O103       C111 1.304       .   A
O104       C113 1.304       .   A
O105       C114 1.304       .   A
O106       C113 1.304       .   A
O107       C114 1.304       .   A
O108       C115 1.304       .   A
O109       C115 1.304       .   A
C110       C237 1.540   1_565   S
C111       C653 1.540       .   S
C112       C601 1.540       .   S
C113       C286 1.540   1_665   S
C114       C627 1.540       .   S
C115       C702 1.540       .   S
Zn116      O120 1.942       .   S
Zn116      O121 1.922       .   S
Zn116      O125 1.922       .   S
Zn116      O132 1.922       .   S
Zn117      O120 1.942       .   S
Zn117      O122 1.922       .   S
Zn117      O124 1.922       .   S
Zn117      O128 1.922       .   S
Zn118      O120 1.942       .   S
Zn118      O123 1.922       .   S
Zn118      O126 1.922       .   S
Zn118      O129 1.922       .   S
Zn119      O120 1.942       .   S
Zn119      O127 1.922       .   S
Zn119      O130 1.922       .   S
Zn119      O131 1.922       .   S
O121       C133 1.304       .   A
O122       C134 1.304       .   A
O123       C135 1.304       .   A
O124       C133 1.304       .   A
O125       C135 1.304       .   A
O126       C134 1.304       .   A
O127       C136 1.304       .   A
O128       C137 1.304       .   A
O129       C136 1.304       .   A
O130       C137 1.304       .   A
O131       C138 1.304       .   A
O132       C138 1.304       .   A
C133       C705 1.540       .   S
C134       C341 1.540   1_465   S
C135       C624 1.540       .   S
C136       C731 1.540       .   S
C137       C650 1.540   1_556   S
C138       C390 1.540   1_565   S
Zn139      O143 1.942       .   S
Zn139      O144 1.922       .   S
Zn139      O148 1.922       .   S
Zn139      O155 1.922       .   S
Zn140      O143 1.942       .   S
Zn140      O145 1.922       .   S
Zn140      O147 1.922       .   S
Zn140      O151 1.922       .   S
Zn141      O143 1.942       .   S
Zn141      O146 1.922       .   S
Zn141      O149 1.922       .   S
Zn141      O152 1.922       .   S
Zn142      O143 1.942       .   S
Zn142      O150 1.922       .   S
Zn142      O153 1.922       .   S
Zn142      O154 1.922       .   S
O144       C156 1.304       .   A
O145       C157 1.304       .   A
O146       C158 1.304       .   A
O147       C156 1.304       .   A
O148       C158 1.304       .   A
O149       C157 1.304       .   A
O150       C159 1.304       .   A
O151       C160 1.304       .   A
O152       C159 1.304       .   A
O153       C160 1.304       .   A
O154       C161 1.304       .   A
O155       C161 1.304       .   A
C156       C520 1.540   1_455   S
C157       C676 1.540   1_545   S
C158       C783 1.540       .   S
C159       C546 1.540       .   S
C160       C757 1.540       .   S
C161       C679 1.540       .   S
Zn162      O166 1.942       .   S
Zn162      O167 1.922       .   S
Zn162      O171 1.922       .   S
Zn162      O178 1.922       .   S
Zn163      O166 1.942       .   S
Zn163      O168 1.922       .   S
Zn163      O170 1.922       .   S
Zn163      O174 1.922       .   S
Zn164      O166 1.942       .   S
Zn164      O169 1.922       .   S
Zn164      O172 1.922       .   S
Zn164      O175 1.922       .   S
Zn165      O166 1.942       .   S
Zn165      O173 1.922       .   S
Zn165      O176 1.922       .   S
Zn165      O177 1.922       .   S
O167       C179 1.304       .   A
O168       C180 1.304       .   A
O169       C181 1.304       .   A
O170       C179 1.304       .   A
O171       C181 1.304       .   A
O172       C180 1.304       .   A
O173       C182 1.304       .   A
O174       C183 1.304       .   A
O175       C182 1.304       .   A
O176       C183 1.304       .   A
O177       C184 1.304       .   A
O178       C184 1.304       .   A
C179       C780 1.540       .   S
C180       C572 1.540   1_455   S
C181       C728 1.540   1_545   S
C182       C806 1.540   1_556   S
C183       C754 1.540       .   S
C184       C598 1.540       .   S
C783       C784 0.027       .   A
C783       C788 0.026       .   A
C784       C785 0.027       .   A
C784       H791 0.022       .   A
C785       C786 0.027       .   A
C785       H790 0.022       .   A
C786       C787 0.028       .   A
C786       C789 0.028       .   A
C787       C788 0.026       .   A
C787       F793 0.027       .   A
C788       H792 0.021       .   A
C789       C794 0.026       .   A
C789       H797 0.021       .   A
C794       C795 0.030       .   A
C794       H796 0.022       .   A
C795       C798 0.032       .   A
C795       N801 0.022       .   A
C795       H805 0.022       .   A
C798       N799 0.030       .   A
C798       H803 0.022       .   A
C798       H804 0.022       .   A
N799       N800 0.022       .   A
N799       C802 0.027       .   A
N800       N801 0.027       .   A
C802       C806 0.027       .   A
C802       H808 0.022       .   A
C806       H807 0.022       .   A
C757       C758 0.027       .   A
C757       C762 0.026       .   A
C758       C759 0.027       .   A
C758       H765 0.022       .   A
C759       C760 0.027       .   A
C759       H764 0.022       .   A
C760       C761 0.028       .   A
C760       C763 0.028       .   A
C761       C762 0.026       .   A
C761       F767 0.027       .   A
C762       H766 0.021       .   A
C763       C768 0.026       .   A
C763       H771 0.021       .   A
C768       C769 0.030       .   A
C768       H770 0.022       .   A
C769       C772 0.032       .   A
C769       N775 0.022       .   A
C769       H779 0.022       .   A
C772       N773 0.030       .   A
C772       H777 0.022       .   A
C772       H778 0.022       .   A
N773       N774 0.022       .   A
N773       C776 0.027       .   A
N774       N775 0.027       .   A
C776       C780 0.027       .   A
C776       H782 0.022       .   A
C780       H781 0.022       .   A
C731       C732 0.027       .   A
C731       C736 0.026       .   A
C732       C733 0.027       .   A
C732       H739 0.022       .   A
C733       C734 0.027       .   A
C733       H738 0.022       .   A
C734       C735 0.028       .   A
C734       C737 0.028       .   A
C735       C736 0.026       .   A
C735       F741 0.027       .   A
C736       H740 0.021       .   A
C737       C742 0.026       .   A
C737       H745 0.021       .   A
C742       C743 0.030       .   A
C742       H744 0.022       .   A
C743       C746 0.032       .   A
C743       N749 0.022       .   A
C743       H753 0.022       .   A
C746       N747 0.030       .   A
C746       H751 0.022       .   A
C746       H752 0.022       .   A
N747       N748 0.022       .   A
N747       C750 0.027       .   A
N748       N749 0.027       .   A
C750       C754 0.027       .   A
C750       H756 0.022       .   A
C754       H755 0.022       .   A
C705       C706 0.027       .   A
C705       C710 0.026       .   A
C706       C707 0.027       .   A
C706       H713 0.022       .   A
C707       C708 0.027       .   A
C707       H712 0.022       .   A
C708       C709 0.028       .   A
C708       C711 0.028       .   A
C709       C710 0.026       .   A
C709       F715 0.027       .   A
C710       H714 0.021       .   A
C711       C716 0.026       .   A
C711       H719 0.021       .   A
C716       C717 0.030       .   A
C716       H718 0.022       .   A
C717       C720 0.032       .   A
C717       N723 0.022       .   A
C717       H727 0.022       .   A
C720       N721 0.030       .   A
C720       H725 0.022       .   A
C720       H726 0.022       .   A
N721       N722 0.022       .   A
N721       C724 0.027       .   A
N722       N723 0.027       .   A
C724       C728 0.027       .   A
C724       H730 0.022       .   A
C728       H729 0.022       .   A
C679       C680 0.027       .   A
C679       C684 0.026       .   A
C680       C681 0.027       .   A
C680       H687 0.022       .   A
C681       C682 0.027       .   A
C681       H686 0.022       .   A
C682       C683 0.028       .   A
C682       C685 0.028       .   A
C683       C684 0.026       .   A
C683       F689 0.027       .   A
C684       H688 0.021       .   A
C685       C690 0.026       .   A
C685       H693 0.021       .   A
C690       C691 0.030       .   A
C690       H692 0.022       .   A
C691       C694 0.032       .   A
C691       N697 0.022       .   A
C691       H701 0.022       .   A
C694       N695 0.030       .   A
C694       H699 0.022       .   A
C694       H700 0.022       .   A
N695       N696 0.022       .   A
N695       C698 0.027       .   A
N696       N697 0.027       .   A
C698       C702 0.027       .   A
C698       H704 0.022       .   A
C702       H703 0.022       .   A
C653       C654 0.027       .   A
C653       C658 0.026       .   A
C654       C655 0.027       .   A
C654       H661 0.022       .   A
C655       C656 0.027       .   A
C655       H660 0.022       .   A
C656       C657 0.028       .   A
C656       C659 0.028       .   A
C657       C658 0.026       .   A
C657       F663 0.027       .   A
C658       H662 0.021       .   A
C659       C664 0.026       .   A
C659       H667 0.021       .   A
C664       C665 0.030       .   A
C664       H666 0.022       .   A
C665       C668 0.032       .   A
C665       N671 0.022       .   A
C665       H675 0.022       .   A
C668       N669 0.030       .   A
C668       H673 0.022       .   A
C668       H674 0.022       .   A
N669       N670 0.022       .   A
N669       C672 0.027       .   A
N670       N671 0.027       .   A
C672       C676 0.027       .   A
C672       H678 0.022       .   A
C676       H677 0.022       .   A
C627       C628 0.027       .   A
C627       C632 0.026       .   A
C628       C629 0.027       .   A
C628       H635 0.022       .   A
C629       C630 0.027       .   A
C629       H634 0.022       .   A
C630       C631 0.028       .   A
C630       C633 0.028       .   A
C631       C632 0.026       .   A
C631       F637 0.027       .   A
C632       H636 0.021       .   A
C633       C638 0.026       .   A
C633       H641 0.021       .   A
C638       C639 0.030       .   A
C638       H640 0.022       .   A
C639       C642 0.032       .   A
C639       N645 0.022       .   A
C639       H649 0.022       .   A
C642       N643 0.030       .   A
C642       H647 0.022       .   A
C642       H648 0.022       .   A
N643       N644 0.022       .   A
N643       C646 0.027       .   A
N644       N645 0.027       .   A
C646       C650 0.027       .   A
C646       H652 0.022       .   A
C650       H651 0.022       .   A
C601       C602 0.027       .   A
C601       C606 0.026       .   A
C602       C603 0.027       .   A
C602       H609 0.022       .   A
C603       C604 0.027       .   A
C603       H608 0.022       .   A
C604       C605 0.028       .   A
C604       C607 0.028       .   A
C605       C606 0.026       .   A
C605       F611 0.027       .   A
C606       H610 0.021       .   A
C607       C612 0.026       .   A
C607       H615 0.021       .   A
C612       C613 0.030       .   A
C612       H614 0.022       .   A
C613       C616 0.032       .   A
C613       N619 0.022       .   A
C613       H623 0.022       .   A
C616       N617 0.030       .   A
C616       H621 0.022       .   A
C616       H622 0.022       .   A
N617       N618 0.022       .   A
N617       C620 0.027       .   A
N618       N619 0.027       .   A
C620       C624 0.027       .   A
C620       H626 0.022       .   A
C624       H625 0.022       .   A
C575       C576 0.027       .   A
C575       C580 0.026       .   A
C576       C577 0.027       .   A
C576       H583 0.022       .   A
C577       C578 0.027       .   A
C577       H582 0.022       .   A
C578       C579 0.028       .   A
C578       C581 0.028       .   A
C579       C580 0.026       .   A
C579       F585 0.027       .   A
C580       H584 0.021       .   A
C581       C586 0.026       .   A
C581       H589 0.021       .   A
C586       C587 0.030       .   A
C586       H588 0.022       .   A
C587       C590 0.032       .   A
C587       N593 0.022       .   A
C587       H597 0.022       .   A
C590       N591 0.030       .   A
C590       H595 0.022       .   A
C590       H596 0.022       .   A
N591       N592 0.022       .   A
N591       C594 0.027       .   A
N592       N593 0.027       .   A
C594       C598 0.027       .   A
C594       H600 0.022       .   A
C598       H599 0.022       .   A
C549       C550 0.027       .   A
C549       C554 0.026       .   A
C550       C551 0.027       .   A
C550       H557 0.022       .   A
C551       C552 0.027       .   A
C551       H556 0.022       .   A
C552       C553 0.028       .   A
C552       C555 0.028       .   A
C553       C554 0.026       .   A
C553       F559 0.027       .   A
C554       H558 0.021       .   A
C555       C560 0.026       .   A
C555       H563 0.021       .   A
C560       C561 0.030       .   A
C560       H562 0.022       .   A
C561       C564 0.032       .   A
C561       N567 0.022       .   A
C561       H571 0.022       .   A
C564       N565 0.030       .   A
C564       H569 0.022       .   A
C564       H570 0.022       .   A
N565       N566 0.022       .   A
N565       C568 0.027       .   A
N566       N567 0.027       .   A
C568       C572 0.027       .   A
C568       H574 0.022       .   A
C572       H573 0.022       .   A
C523       C524 0.027       .   A
C523       C528 0.026       .   A
C524       C525 0.027       .   A
C524       H531 0.022       .   A
C525       C526 0.027       .   A
C525       H530 0.022       .   A
C526       C527 0.028       .   A
C526       C529 0.028       .   A
C527       C528 0.026       .   A
C527       F533 0.027       .   A
C528       H532 0.021       .   A
C529       C534 0.026       .   A
C529       H537 0.021       .   A
C534       C535 0.030       .   A
C534       H536 0.022       .   A
C535       C538 0.032       .   A
C535       N541 0.022       .   A
C535       H545 0.022       .   A
C538       N539 0.030       .   A
C538       H543 0.022       .   A
C538       H544 0.022       .   A
N539       N540 0.022       .   A
N539       C542 0.027       .   A
N540       N541 0.027       .   A
C542       C546 0.027       .   A
C542       H548 0.022       .   A
C546       H547 0.022       .   A
C497       C498 0.027       .   A
C497       C502 0.026       .   A
C498       C499 0.027       .   A
C498       H505 0.022       .   A
C499       C500 0.027       .   A
C499       H504 0.022       .   A
C500       C501 0.028       .   A
C500       C503 0.028       .   A
C501       C502 0.026       .   A
C501       F507 0.027       .   A
C502       H506 0.021       .   A
C503       C508 0.026       .   A
C503       H511 0.021       .   A
C508       C509 0.030       .   A
C508       H510 0.022       .   A
C509       C512 0.032       .   A
C509       N515 0.022       .   A
C509       H519 0.022       .   A
C512       N513 0.030       .   A
C512       H517 0.022       .   A
C512       H518 0.022       .   A
N513       N514 0.022       .   A
N513       C516 0.027       .   A
N514       N515 0.027       .   A
C516       C520 0.027       .   A
C516       H522 0.022       .   A
C520       H521 0.022       .   A
C471       C472 0.027       .   A
C471       C476 0.026       .   A
C472       C473 0.027       .   A
C472       H479 0.022       .   A
C473       C474 0.027       .   A
C473       H478 0.022       .   A
C474       C475 0.028       .   A
C474       C477 0.028       .   A
C475       C476 0.026       .   A
C475       F481 0.027       .   A
C476       H480 0.021       .   A
C477       C482 0.026       .   A
C477       H485 0.021       .   A
C482       C483 0.030       .   A
C482       H484 0.022       .   A
C483       C486 0.032       .   A
C483       N489 0.022       .   A
C483       H493 0.022       .   A
C486       N487 0.030       .   A
C486       H491 0.022       .   A
C486       H492 0.022       .   A
N487       N488 0.022       .   A
N487       C490 0.027       .   A
N488       N489 0.027       .   A
C490       C494 0.027       .   A
C490       H496 0.022       .   A
C494       H495 0.022       .   A
C445       C446 0.027       .   A
C445       C450 0.026       .   A
C446       C447 0.027       .   A
C446       H453 0.022       .   A
C447       C448 0.027       .   A
C447       H452 0.022       .   A
C448       C449 0.028       .   A
C448       C451 0.028       .   A
C449       C450 0.026       .   A
C449       F455 0.027       .   A
C450       H454 0.021       .   A
C451       C456 0.026       .   A
C451       H459 0.021       .   A
C456       C457 0.030       .   A
C456       H458 0.022       .   A
C457       C460 0.032       .   A
C457       N463 0.022       .   A
C457       H467 0.022       .   A
C460       N461 0.030       .   A
C460       H465 0.022       .   A
C460       H466 0.022       .   A
N461       N462 0.022       .   A
N461       C464 0.027       .   A
N462       N463 0.027       .   A
C464       C468 0.027       .   A
C464       H470 0.022       .   A
C468       H469 0.022       .   A
C419       C420 0.027       .   A
C419       C424 0.026       .   A
C420       C421 0.027       .   A
C420       H427 0.022       .   A
C421       C422 0.027       .   A
C421       H426 0.022       .   A
C422       C423 0.028       .   A
C422       C425 0.028       .   A
C423       C424 0.026       .   A
C423       F429 0.027       .   A
C424       H428 0.021       .   A
C425       C430 0.026       .   A
C425       H433 0.021       .   A
C430       C431 0.030       .   A
C430       H432 0.022       .   A
C431       C434 0.032       .   A
C431       N437 0.022       .   A
C431       H441 0.022       .   A
C434       N435 0.030       .   A
C434       H439 0.022       .   A
C434       H440 0.022       .   A
N435       N436 0.022       .   A
N435       C438 0.027       .   A
N436       N437 0.027       .   A
C438       C442 0.027       .   A
C438       H444 0.022       .   A
C442       H443 0.022       .   A
C393       C394 0.027       .   A
C393       C398 0.026       .   A
C394       C395 0.027       .   A
C394       H401 0.022       .   A
C395       C396 0.027       .   A
C395       H400 0.022       .   A
C396       C397 0.028       .   A
C396       C399 0.028       .   A
C397       C398 0.026       .   A
C397       F403 0.027       .   A
C398       H402 0.021       .   A
C399       C404 0.026       .   A
C399       H407 0.021       .   A
C404       C405 0.030       .   A
C404       H406 0.022       .   A
C405       C408 0.032       .   A
C405       N411 0.022       .   A
C405       H415 0.022       .   A
C408       N409 0.030       .   A
C408       H413 0.022       .   A
C408       H414 0.022       .   A
N409       N410 0.022       .   A
N409       C412 0.027       .   A
N410       N411 0.027       .   A
C412       C416 0.027       .   A
C412       H418 0.022       .   A
C416       H417 0.022       .   A
C367       C368 0.027       .   A
C367       C372 0.026       .   A
C368       C369 0.027       .   A
C368       H375 0.022       .   A
C369       C370 0.027       .   A
C369       H374 0.022       .   A
C370       C371 0.028       .   A
C370       C373 0.028       .   A
C371       C372 0.026       .   A
C371       F377 0.027       .   A
C372       H376 0.021       .   A
C373       C378 0.026       .   A
C373       H381 0.021       .   A
C378       C379 0.030       .   A
C378       H380 0.022       .   A
C379       C382 0.032       .   A
C379       N385 0.022       .   A
C379       H389 0.022       .   A
C382       N383 0.030       .   A
C382       H387 0.022       .   A
C382       H388 0.022       .   A
N383       N384 0.022       .   A
N383       C386 0.027       .   A
N384       N385 0.027       .   A
C386       C390 0.027       .   A
C386       H392 0.022       .   A
C390       H391 0.022       .   A
C341       C342 0.027       .   A
C341       C346 0.026       .   A
C342       C343 0.027       .   A
C342       H349 0.022       .   A
C343       C344 0.027       .   A
C343       H348 0.022       .   A
C344       C345 0.028       .   A
C344       C347 0.028       .   A
C345       C346 0.026       .   A
C345       F351 0.027       .   A
C346       H350 0.021       .   A
C347       C352 0.026       .   A
C347       H355 0.021       .   A
C352       C353 0.030       .   A
C352       H354 0.022       .   A
C353       C356 0.032       .   A
C353       N359 0.022       .   A
C353       H363 0.022       .   A
C356       N357 0.030       .   A
C356       H361 0.022       .   A
C356       H362 0.022       .   A
N357       N358 0.022       .   A
N357       C360 0.027       .   A
N358       N359 0.027       .   A
C360       C364 0.027       .   A
C360       H366 0.022       .   A
C364       H365 0.022       .   A
C315       C316 0.027       .   A
C315       C320 0.026       .   A
C316       C317 0.027       .   A
C316       H323 0.022       .   A
C317       C318 0.027       .   A
C317       H322 0.022       .   A
C318       C319 0.028       .   A
C318       C321 0.028       .   A
C319       C320 0.026       .   A
C319       F325 0.027       .   A
C320       H324 0.021       .   A
C321       C326 0.026       .   A
C321       H329 0.021       .   A
C326       C327 0.030       .   A
C326       H328 0.022       .   A
C327       C330 0.032       .   A
C327       N333 0.022       .   A
C327       H337 0.022       .   A
C330       N331 0.030       .   A
C330       H335 0.022       .   A
C330       H336 0.022       .   A
N331       N332 0.022       .   A
N331       C334 0.027       .   A
N332       N333 0.027       .   A
C334       C338 0.027       .   A
C334       H340 0.022       .   A
C338       H339 0.022       .   A
C289       C290 0.027       .   A
C289       C294 0.026       .   A
C290       C291 0.027       .   A
C290       H297 0.022       .   A
C291       C292 0.027       .   A
C291       H296 0.022       .   A
C292       C293 0.028       .   A
C292       C295 0.028       .   A
C293       C294 0.026       .   A
C293       F299 0.027       .   A
C294       H298 0.021       .   A
C295       C300 0.026       .   A
C295       H303 0.021       .   A
C300       C301 0.030       .   A
C300       H302 0.022       .   A
C301       C304 0.032       .   A
C301       N307 0.022       .   A
C301       H311 0.022       .   A
C304       N305 0.030       .   A
C304       H309 0.022       .   A
C304       H310 0.022       .   A
N305       N306 0.022       .   A
N305       C308 0.027       .   A
N306       N307 0.027       .   A
C308       C312 0.027       .   A
C308       H314 0.022       .   A
C312       H313 0.022       .   A
C263       C264 0.027       .   A
C263       C268 0.026       .   A
C264       C265 0.027       .   A
C264       H271 0.022       .   A
C265       C266 0.027       .   A
C265       H270 0.022       .   A
C266       C267 0.028       .   A
C266       C269 0.028       .   A
C267       C268 0.026       .   A
C267       F273 0.027       .   A
C268       H272 0.021       .   A
C269       C274 0.026       .   A
C269       H277 0.021       .   A
C274       C275 0.030       .   A
C274       H276 0.022       .   A
C275       C278 0.032       .   A
C275       N281 0.022       .   A
C275       H285 0.022       .   A
C278       N279 0.030       .   A
C278       H283 0.022       .   A
C278       H284 0.022       .   A
N279       N280 0.022       .   A
N279       C282 0.027       .   A
N280       N281 0.027       .   A
C282       C286 0.027       .   A
C282       H288 0.022       .   A
C286       H287 0.022       .   A
C237       C238 0.027       .   A
C237       C242 0.026       .   A
C238       C239 0.027       .   A
C238       H245 0.022       .   A
C239       C240 0.027       .   A
C239       H244 0.022       .   A
C240       C241 0.028       .   A
C240       C243 0.028       .   A
C241       C242 0.026       .   A
C241       F247 0.027       .   A
C242       H246 0.021       .   A
C243       C248 0.026       .   A
C243       H251 0.021       .   A
C248       C249 0.030       .   A
C248       H250 0.022       .   A
C249       C252 0.032       .   A
C249       N255 0.022       .   A
C249       H259 0.022       .   A
C252       N253 0.030       .   A
C252       H257 0.022       .   A
C252       H258 0.022       .   A
N253       N254 0.022       .   A
N253       C256 0.027       .   A
N254       N255 0.027       .   A
C256       C260 0.027       .   A
C256       H262 0.022       .   A
C260       H261 0.022       .   A
C211       C212 0.027       .   A
C211       C216 0.026       .   A
C212       C213 0.027       .   A
C212       H219 0.022       .   A
C213       C214 0.027       .   A
C213       H218 0.022       .   A
C214       C215 0.028       .   A
C214       C217 0.028       .   A
C215       C216 0.026       .   A
C215       F221 0.027       .   A
C216       H220 0.021       .   A
C217       C222 0.026       .   A
C217       H225 0.021       .   A
C222       C223 0.030       .   A
C222       H224 0.022       .   A
C223       C226 0.032       .   A
C223       N229 0.022       .   A
C223       H233 0.022       .   A
C226       N227 0.030       .   A
C226       H231 0.022       .   A
C226       H232 0.022       .   A
N227       N228 0.022       .   A
N227       C230 0.027       .   A
N228       N229 0.027       .   A
C230       C234 0.027       .   A
C230       H236 0.022       .   A
C234       H235 0.022       .   A
C185       C186 0.027       .   A
C185       C190 0.026       .   A
C186       C187 0.027       .   A
C186       H193 0.022       .   A
C187       C188 0.027       .   A
C187       H192 0.022       .   A
C188       C189 0.028       .   A
C188       C191 0.028       .   A
C189       C190 0.026       .   A
C189       F195 0.027       .   A
C190       H194 0.021       .   A
C191       C196 0.026       .   A
C191       H199 0.021       .   A
C196       C197 0.030       .   A
C196       H198 0.022       .   A
C197       C200 0.032       .   A
C197       N203 0.022       .   A
C197       H207 0.022       .   A
C200       N201 0.030       .   A
C200       H205 0.022       .   A
C200       H206 0.022       .   A
N201       N202 0.022       .   A
N201       C204 0.027       .   A
N202       N203 0.027       .   A
C204       C208 0.027       .   A
C204       H210 0.022       .   A
C208       H209 0.022       .   A
