data_pcu_v1-6c_Zn_1_Ch_1-15_fer_tobacco
_audit_creation_date              2021-02-03
_audit_creation_method            'tobacco_3.0'
_symmetry_space_group_name_H-M    'P1'
_symmetry_Int_Tables_number       1
_symmetry_cell_setting            triclinic
loop_
_symmetry_equiv_pos_as_xyz
  x,y,z
_cell_length_a                    35.98242471274545
_cell_length_b                    35.98242471274545
_cell_length_c                    35.98242471274545
_cell_angle_alpha                 90.0
_cell_angle_beta                  90.0
_cell_angle_gamma                 90.0
loop_
_atom_site_label
_atom_site_type_symbol
_atom_site_fract_x
_atom_site_fract_y
_atom_site_fract_z
_atom_site_charge
Zn1       Zn   -0.0311596567    0.0311596567   -0.0311596567          1.4972
Zn2       Zn    0.0311596567    0.0311596567    0.0311596567          1.4936
Zn3       Zn   -0.0311596567   -0.0311596567    0.0311596567          1.4911
Zn4       Zn    0.0311596567   -0.0311596567   -0.0311596567          1.4948
O5         O    0.0000000000    0.0000000000    0.0000000000          -2.105
O6         O   -0.0229000688    0.0832795462   -0.0229000688         -1.0113
O7         O    0.0229000688    0.0229000688    0.0832795462         -1.0095
O8         O   -0.0832795462   -0.0229000688    0.0229000688         -1.0047
O9         O    0.0229000688    0.0832795462    0.0229000688         -1.0114
O10        O   -0.0832795462    0.0229000688   -0.0229000688         -1.0074
O11        O   -0.0229000688   -0.0229000688    0.0832795462         -1.0133
O12        O    0.0229000688   -0.0832795462   -0.0229000688         -1.0072
O13        O    0.0832795462    0.0229000688    0.0229000688         -1.0147
O14        O   -0.0229000688   -0.0832795462    0.0229000688         -1.0086
O15        O    0.0832795462   -0.0229000688   -0.0229000688         -1.0133
O16        O    0.0229000688   -0.0229000688   -0.0832795462         -1.0124
O17        O   -0.0229000688    0.0229000688   -0.0832795462         -1.0103
C18        C   -0.0000000000    0.0995708329    0.0000000000          0.5076
C19        C    0.0000000000   -0.0000000000    0.0995708329          0.5125
C20        C   -0.0995708329    0.0000000000    0.0000000000          0.5021
C21        C    0.0000000000   -0.0995708329   -0.0000000000          0.5059
C22        C    0.0995708329   -0.0000000000   -0.0000000000          0.5172
C23        C   -0.0000000000    0.0000000000   -0.0995708329          0.5077
Zn24      Zn    0.9688403433    0.0311596567    0.4688403433          1.4972
Zn25      Zn    1.0311596567   -0.0311596567    0.4688403433          1.4936
Zn26      Zn    1.0311596567    0.0311596567    0.5311596567          1.4911
Zn27      Zn    0.9688403433   -0.0311596567    0.5311596567          1.4948
O28        O    1.0000000000    0.0000000000    0.5000000000          -2.105
O29        O    0.9770999312    0.0229000688    0.4167204538         -1.0113
O30        O    1.0832795462   -0.0229000688    0.4770999312         -1.0095
O31        O    1.0229000688    0.0832795462    0.5229000688         -1.0047
O32        O    1.0229000688   -0.0229000688    0.4167204538         -1.0114
O33        O    0.9770999312    0.0832795462    0.4770999312         -1.0074
O34        O    1.0832795462    0.0229000688    0.5229000688         -1.0133
O35        O    0.9770999312   -0.0229000688    0.5832795462         -1.0072
O36        O    1.0229000688   -0.0832795462    0.4770999312         -1.0147
O37        O    1.0229000688    0.0229000688    0.5832795462         -1.0086
O38        O    0.9770999312   -0.0832795462    0.5229000688         -1.0133
O39        O    0.9167204538   -0.0229000688    0.5229000688         -1.0124
O40        O    0.9167204538    0.0229000688    0.4770999312         -1.0103
C41        C    1.0000000000    0.0000000000    0.4004291671          0.5076
C42        C    1.0995708329    0.0000000000    0.5000000000          0.5125
C43        C    1.0000000000    0.0995708329    0.5000000000          0.5021
C44        C    1.0000000000    0.0000000000    0.5995708329          0.5059
C45        C    1.0000000000   -0.0995708329    0.5000000000          0.5172
C46        C    0.9004291671    0.0000000000    0.5000000000          0.5077
Zn47      Zn    1.0311596567    0.5311596567   -0.0311596567          1.4972
Zn48      Zn    0.9688403433    0.5311596567    0.0311596567          1.4936
Zn49      Zn    0.9688403433    0.4688403433   -0.0311596567          1.4911
Zn50      Zn    1.0311596567    0.4688403433    0.0311596567          1.4948
O51        O    1.0000000000    0.5000000000    0.0000000000          -2.105
O52        O    1.0229000688    0.5832795462   -0.0229000688         -1.0113
O53        O    0.9167204538    0.5229000688    0.0229000688         -1.0095
O54        O    0.9770999312    0.4770999312   -0.0832795462         -1.0047
O55        O    0.9770999312    0.5832795462    0.0229000688         -1.0114
O56        O    1.0229000688    0.5229000688   -0.0832795462         -1.0074
O57        O    0.9167204538    0.4770999312   -0.0229000688         -1.0133
O58        O    1.0229000688    0.4167204538    0.0229000688         -1.0072
O59        O    0.9770999312    0.5229000688    0.0832795462         -1.0147
O60        O    0.9770999312    0.4167204538   -0.0229000688         -1.0086
O61        O    1.0229000688    0.4770999312    0.0832795462         -1.0133
O62        O    1.0832795462    0.4770999312    0.0229000688         -1.0124
O63        O    1.0832795462    0.5229000688   -0.0229000688         -1.0103
C64        C    1.0000000000    0.5995708329    0.0000000000          0.5076
C65        C    0.9004291671    0.5000000000    0.0000000000          0.5125
C66        C    1.0000000000    0.5000000000   -0.0995708329          0.5021
C67        C    1.0000000000    0.4004291671    0.0000000000          0.5059
C68        C    1.0000000000    0.5000000000    0.0995708329          0.5172
C69        C    1.0995708329    0.5000000000    0.0000000000          0.5077
Zn70      Zn    0.9688403433    0.4688403433    0.5311596567          1.4972
Zn71      Zn    1.0311596567    0.5311596567    0.5311596567          1.4936
Zn72      Zn    1.0311596567    0.4688403433    0.4688403433          1.4911
Zn73      Zn    0.9688403433    0.5311596567    0.4688403433          1.4948
O74        O    1.0000000000    0.5000000000    0.5000000000          -2.105
O75        O    0.9770999312    0.4770999312    0.5832795462         -1.0113
O76        O    1.0832795462    0.5229000688    0.5229000688         -1.0095
O77        O    1.0229000688    0.4167204538    0.4770999312         -1.0047
O78        O    1.0229000688    0.5229000688    0.5832795462         -1.0114
O79        O    0.9770999312    0.4167204538    0.5229000688         -1.0074
O80        O    1.0832795462    0.4770999312    0.4770999312         -1.0133
O81        O    0.9770999312    0.5229000688    0.4167204538         -1.0072
O82        O    1.0229000688    0.5832795462    0.5229000688         -1.0147
O83        O    1.0229000688    0.4770999312    0.4167204538         -1.0086
O84        O    0.9770999312    0.5832795462    0.4770999312         -1.0133
O85        O    0.9167204538    0.5229000688    0.4770999312         -1.0124
O86        O    0.9167204538    0.4770999312    0.5229000688         -1.0103
C87        C    1.0000000000    0.5000000000    0.5995708329          0.5076
C88        C    1.0995708329    0.5000000000    0.5000000000          0.5125
C89        C    1.0000000000    0.4004291671    0.5000000000          0.5021
C90        C    1.0000000000    0.5000000000    0.4004291671          0.5059
C91        C    1.0000000000    0.5995708329    0.5000000000          0.5172
C92        C    0.9004291671    0.5000000000    0.5000000000          0.5077
Zn93      Zn    0.4688403433    0.9688403433   -0.0311596567          1.4972
Zn94      Zn    0.4688403433    1.0311596567    0.0311596567          1.4936
Zn95      Zn    0.5311596567    0.9688403433    0.0311596567          1.4911
Zn96      Zn    0.5311596567    1.0311596567   -0.0311596567          1.4948
O97        O    0.5000000000    1.0000000000    0.0000000000          -2.105
O98        O    0.4167204538    0.9770999312   -0.0229000688         -1.0113
O99        O    0.4770999312    1.0229000688    0.0832795462         -1.0095
O100       O    0.5229000688    0.9167204538    0.0229000688         -1.0047
O101       O    0.4167204538    1.0229000688    0.0229000688         -1.0114
O102       O    0.4770999312    0.9167204538   -0.0229000688         -1.0074
O103       O    0.5229000688    0.9770999312    0.0832795462         -1.0133
O104       O    0.5832795462    1.0229000688   -0.0229000688         -1.0072
O105       O    0.4770999312    1.0832795462    0.0229000688         -1.0147
O106       O    0.5832795462    0.9770999312    0.0229000688         -1.0086
O107       O    0.5229000688    1.0832795462   -0.0229000688         -1.0133
O108       O    0.5229000688    1.0229000688   -0.0832795462         -1.0124
O109       O    0.4770999312    0.9770999312   -0.0832795462         -1.0103
C110       C    0.4004291671    1.0000000000    0.0000000000          0.5076
C111       C    0.5000000000    1.0000000000    0.0995708329          0.5125
C112       C    0.5000000000    0.9004291671    0.0000000000          0.5021
C113       C    0.5995708329    1.0000000000    0.0000000000          0.5059
C114       C    0.5000000000    1.0995708329    0.0000000000          0.5172
C115       C    0.5000000000    1.0000000000   -0.0995708329          0.5077
Zn116     Zn    0.4688403433    1.0311596567    0.5311596567          1.4972
Zn117     Zn    0.4688403433    0.9688403433    0.4688403433          1.4936
Zn118     Zn    0.5311596567    1.0311596567    0.4688403433          1.4911
Zn119     Zn    0.5311596567    0.9688403433    0.5311596567          1.4948
O120       O    0.5000000000    1.0000000000    0.5000000000          -2.105
O121       O    0.4167204538    1.0229000688    0.5229000688         -1.0113
O122       O    0.4770999312    0.9770999312    0.4167204538         -1.0095
O123       O    0.5229000688    1.0832795462    0.4770999312         -1.0047
O124       O    0.4167204538    0.9770999312    0.4770999312         -1.0114
O125       O    0.4770999312    1.0832795462    0.5229000688         -1.0074
O126       O    0.5229000688    1.0229000688    0.4167204538         -1.0133
O127       O    0.5832795462    0.9770999312    0.5229000688         -1.0072
O128       O    0.4770999312    0.9167204538    0.4770999312         -1.0147
O129       O    0.5832795462    1.0229000688    0.4770999312         -1.0086
O130       O    0.5229000688    0.9167204538    0.5229000688         -1.0133
O131       O    0.5229000688    0.9770999312    0.5832795462         -1.0124
O132       O    0.4770999312    1.0229000688    0.5832795462         -1.0103
C133       C    0.4004291671    1.0000000000    0.5000000000          0.5076
C134       C    0.5000000000    1.0000000000    0.4004291671          0.5125
C135       C    0.5000000000    1.0995708329    0.5000000000          0.5021
C136       C    0.5995708329    1.0000000000    0.5000000000          0.5059
C137       C    0.5000000000    0.9004291671    0.5000000000          0.5172
C138       C    0.5000000000    1.0000000000    0.5995708329          0.5077
Zn139     Zn    0.5311596567    0.4688403433    0.0311596567          1.4972
Zn140     Zn    0.4688403433    0.4688403433   -0.0311596567          1.4936
Zn141     Zn    0.4688403433    0.5311596567    0.0311596567          1.4911
Zn142     Zn    0.5311596567    0.5311596567   -0.0311596567          1.4948
O143       O    0.5000000000    0.5000000000    0.0000000000          -2.105
O144       O    0.5229000688    0.4167204538    0.0229000688         -1.0113
O145       O    0.4167204538    0.4770999312   -0.0229000688         -1.0095
O146       O    0.4770999312    0.5229000688    0.0832795462         -1.0047
O147       O    0.4770999312    0.4167204538   -0.0229000688         -1.0114
O148       O    0.5229000688    0.4770999312    0.0832795462         -1.0074
O149       O    0.4167204538    0.5229000688    0.0229000688         -1.0133
O150       O    0.5229000688    0.5832795462   -0.0229000688         -1.0072
O151       O    0.4770999312    0.4770999312   -0.0832795462         -1.0147
O152       O    0.4770999312    0.5832795462    0.0229000688         -1.0086
O153       O    0.5229000688    0.5229000688   -0.0832795462         -1.0133
O154       O    0.5832795462    0.5229000688   -0.0229000688         -1.0124
O155       O    0.5832795462    0.4770999312    0.0229000688         -1.0103
C156       C    0.5000000000    0.4004291671    0.0000000000          0.5076
C157       C    0.4004291671    0.5000000000    0.0000000000          0.5125
C158       C    0.5000000000    0.5000000000    0.0995708329          0.5021
C159       C    0.5000000000    0.5995708329    0.0000000000          0.5059
C160       C    0.5000000000    0.5000000000   -0.0995708329          0.5172
C161       C    0.5995708329    0.5000000000    0.0000000000          0.5077
Zn162     Zn    0.5311596567    0.4688403433    0.5311596567          1.4972
Zn163     Zn    0.4688403433    0.4688403433    0.4688403433          1.4936
Zn164     Zn    0.4688403433    0.5311596567    0.5311596567          1.4911
Zn165     Zn    0.5311596567    0.5311596567    0.4688403433          1.4948
O166       O    0.5000000000    0.5000000000    0.5000000000          -2.105
O167       O    0.5229000688    0.4167204538    0.5229000688         -1.0113
O168       O    0.4167204538    0.4770999312    0.4770999312         -1.0095
O169       O    0.4770999312    0.5229000688    0.5832795462         -1.0047
O170       O    0.4770999312    0.4167204538    0.4770999312         -1.0114
O171       O    0.5229000688    0.4770999312    0.5832795462         -1.0074
O172       O    0.4167204538    0.5229000688    0.5229000688         -1.0133
O173       O    0.5229000688    0.5832795462    0.4770999312         -1.0072
O174       O    0.4770999312    0.4770999312    0.4167204538         -1.0147
O175       O    0.4770999312    0.5832795462    0.5229000688         -1.0086
O176       O    0.5229000688    0.5229000688    0.4167204538         -1.0133
O177       O    0.5832795462    0.5229000688    0.4770999312         -1.0124
O178       O    0.5832795462    0.4770999312    0.5229000688         -1.0103
C179       C    0.5000000000    0.4004291671    0.5000000000          0.5076
C180       C    0.4004291671    0.5000000000    0.5000000000          0.5125
C181       C    0.5000000000    0.5000000000    0.5995708329          0.5021
C182       C    0.5000000000    0.5995708329    0.5000000000          0.5059
C183       C    0.5000000000    0.5000000000    0.4004291671          0.5172
C184       C    0.5995708329    0.5000000000    0.5000000000          0.5077
C553       C    0.5000000000    0.5000000000   -0.3576304949          0.7307
C554       C    0.5248806494    0.5062972835   -0.3318164697         -0.2632
C555       C    0.5165880813    0.5067751163   -0.2960585553          -0.262
C556       C    0.4828889492    0.5019212400   -0.2812935230         -0.2659
C557       C    0.4565300645    0.4972848582   -0.3082541342          0.7296
C558       C    0.4647643167    0.4962027446   -0.3454829181          0.7278
N559       N    0.4783273370    0.5012272907   -0.2446231564         -0.2657
O560       O    0.5479663528    0.5096349605   -0.2796449092         -0.2593
H561       H    0.5538793581    0.5106017839   -0.3397691489         -0.2597
H562       H    0.4432743325    0.4912744639   -0.3663945776           0.723
C563       C    0.4264776383    0.4929757572   -0.3026269131           0.726
N564       N    0.3949319316    0.4932633609   -0.2988114511          0.7265
H565       H    0.5559030188    0.5060348360   -0.3060113527         -0.2631
N566       N    0.4998668710    0.5049579337   -0.2156932439         -0.2618
C567       C    0.4887103301    0.5002551094   -0.1800484282         -0.2652
C568       C    0.5000000000    0.5000000000   -0.1423695051         -0.2646
C537       C    0.5000000000    0.5000000000    0.3576304949          0.7307
C538       C    0.5248806494    0.4937027165    0.3318164697         -0.2632
C539       C    0.5165880813    0.4932248837    0.2960585553          -0.262
C540       C    0.4828889492    0.4980787600    0.2812935230         -0.2659
C541       C    0.4565300645    0.5027151418    0.3082541342          0.7296
C542       C    0.4647643167    0.5037972554    0.3454829181          0.7278
N543       N    0.4783273370    0.4987727093    0.2446231564         -0.2657
O544       O    0.5479663528    0.4903650395    0.2796449092         -0.2593
H545       H    0.5538793581    0.4893982161    0.3397691489         -0.2597
H546       H    0.4432743325    0.5087255361    0.3663945776           0.723
C547       C    0.4264776383    0.5070242428    0.3026269131           0.726
N548       N    0.3949319316    0.5067366391    0.2988114511          0.7265
H549       H    0.5559030188    0.4939651640    0.3060113527         -0.2631
N550       N    0.4998668710    0.4950420663    0.2156932439         -0.2618
C551       C    0.4887103301    0.4997448906    0.1800484282         -0.2652
C552       C    0.5000000000    0.5000000000    0.1423695051         -0.2646
C521       C    0.5000000000    0.6423695051    0.5000000000          0.7307
C522       C    0.5073616142    0.6681835303    0.5245867674         -0.2632
C523       C    0.5074823275    0.7039414447    0.5162813211          -0.262
C524       C    0.5011834871    0.7187064770    0.4828221485         -0.2659
C525       C    0.4954176562    0.6917458658    0.4566870757          0.7296
C526       C    0.4946907130    0.6545170819    0.4649602512          0.7278
N527       N    0.5002939774    0.7553768436    0.4782946057         -0.2657
O528       O    0.5116891571    0.7203550908    0.5475075475         -0.2593
H529       H    0.5129094140    0.6602308511    0.5533734960         -0.2597
H530       H    0.4888426729    0.6336054224    0.4437021280           0.723
C531       C    0.4898199378    0.6973730869    0.4268478025           0.726
N532       N    0.4887504417    0.7011885489    0.3953189189          0.7265
H533       H    0.5084337336    0.6939886473    0.5555917160         -0.2631
N534       N    0.5049476194    0.7843067561    0.4996537452         -0.2618
C535       C    0.4997692857    0.8199515718    0.4887098053         -0.2652
C536       C    0.5000000000    0.8576304949    0.5000000000         -0.2646
C505       C    0.5000000000    1.1423695051    0.5000000000          0.7307
C506       C    0.4751193506    1.1681835303    0.5062972835         -0.2632
C507       C    0.4834119187    1.2039414447    0.5067751163          -0.262
C508       C    0.5171110508    1.2187064770    0.5019212400         -0.2659
C509       C    0.5434699355    1.1917458658    0.4972848582          0.7296
C510       C    0.5352356833    1.1545170819    0.4962027446          0.7278
N511       N    0.5216726630    1.2553768436    0.5012272907         -0.2657
O512       O    0.4520336472    1.2203550908    0.5096349605         -0.2593
H513       H    0.4461206419    1.1602308511    0.5106017839         -0.2597
H514       H    0.5567256675    1.1336054224    0.4912744639           0.723
C515       C    0.5735223617    1.1973730869    0.4929757572           0.726
N516       N    0.6050680684    1.2011885489    0.4932633609          0.7265
H517       H    0.4440969812    1.1939886473    0.5060348360         -0.2631
N518       N    0.5001331290    1.2843067561    0.5049579337         -0.2618
C519       C    0.5112896699    1.3199515718    0.5002551094         -0.2652
C520       C    0.5000000000    1.3576304949    0.5000000000         -0.2646
C489       C    0.5000000000    0.6423695051    0.0000000000          0.7307
C490       C    0.4756233125    0.6681835303    0.0080299193         -0.2632
C491       C    0.4839289595    0.7039414447    0.0079239068          -0.262
C492       C    0.5172037533    0.7187064770    0.0007142106         -0.2659
C493       C    0.5431717231    0.6917458658   -0.0057627779          0.7296
C494       C    0.5348817891    0.6545170819   -0.0062636502          0.7278
N495       N    0.5217053320    0.7553768436   -0.0002985381         -0.2657
O496       O    0.4528291827    0.7203550908    0.0129814277         -0.2593
H497       H    0.4469987240    0.6602308511    0.0143613296         -0.2597
H498       H    0.5559723823    0.6336054224   -0.0126897104           0.723
C499       C    0.5728471017    0.6973730869   -0.0121728152           0.726
N500       N    0.6043350503    0.7011885489   -0.0141024318          0.7265
H501       H    0.4446591754    0.6939886473    0.0099478584         -0.2631
N502       N    0.5004811614    0.7843067561    0.0049363259         -0.2618
C503       C    0.5112796920    0.8199515718   -0.0005387720         -0.2652
C504       C    0.5000000000    0.8576304949    0.0000000000         -0.2646
C473       C    0.5000000000    1.1423695051    0.0000000000          0.7307
C474       C    0.4764498081    1.1681835303    0.0102024976         -0.2632
C475       C    0.4847117988    1.2039414447    0.0093454558          -0.262
C476       C    0.5171978131    1.2187064770   -0.0008452504         -0.2659
C477       C    0.5424732643    1.1917458658   -0.0096451597          0.7296
C478       C    0.5341720134    1.1545170819   -0.0093939353          0.7278
N479       N    0.5215892994    1.2553768436   -0.0022611316         -0.2657
O480       O    0.4541971600    1.2203550908    0.0171960262         -0.2593
H481       H    0.4485154627    1.1602308511    0.0190977869         -0.2597
H482       H    0.5545946999    1.1336054224   -0.0177018383           0.723
C483       C    0.5714469762    1.1973730869   -0.0187138251           0.726
N484       N    0.6026311959    1.2011885489   -0.0234844403          0.7265
H485       H    0.4457861950    1.1939886473    0.0149140907         -0.2631
N486       N    0.5009258084    1.2843067561    0.0048725464         -0.2618
C487       C    0.5111846835    1.3199515718   -0.0015571069         -0.2652
C488       C    0.5000000000    1.3576304949    0.0000000000         -0.2646
C457       C    0.5000000000    1.0000000000   -0.3576304949          0.7307
C458       C    0.5062972835    0.9751193506   -0.3318164697         -0.2632
C459       C    0.5067751163    0.9834119187   -0.2960585553          -0.262
C460       C    0.5019212400    1.0171110508   -0.2812935230         -0.2659
C461       C    0.4972848582    1.0434699355   -0.3082541342          0.7296
C462       C    0.4962027446    1.0352356833   -0.3454829181          0.7278
N463       N    0.5012272907    1.0216726630   -0.2446231564         -0.2657
O464       O    0.5096349605    0.9520336472   -0.2796449092         -0.2593
H465       H    0.5106017839    0.9461206419   -0.3397691489         -0.2597
H466       H    0.4912744639    1.0567256675   -0.3663945776           0.723
C467       C    0.4929757572    1.0735223617   -0.3026269131           0.726
N468       N    0.4932633609    1.1050680684   -0.2988114511          0.7265
H469       H    0.5060348360    0.9440969812   -0.3060113527         -0.2631
N470       N    0.5049579337    1.0001331290   -0.2156932439         -0.2618
C471       C    0.5002551094    1.0112896699   -0.1800484282         -0.2652
C472       C    0.5000000000    1.0000000000   -0.1423695051         -0.2646
C441       C    0.5000000000    1.0000000000    0.1423695051          0.7307
C442       C    0.5055423249    0.9749403685    0.1681835303         -0.2632
C443       C    0.5062706033    0.9832147036    0.2039414447          -0.262
C444       C    0.5024375872    1.0170451574    0.2187064770         -0.2659
C445       C    0.4986000885    1.0435321437    0.1917458658          0.7296
C446       C    0.4972695681    1.0353343638    0.1545170819          0.7278
N447       N    0.5018818414    1.0216256615    0.2553768436         -0.2657
O448       O    0.5081806524    0.9517643245    0.2203550908         -0.2593
H449       H    0.5089682984    0.9458247965    0.1602308511         -0.2597
H450       H    0.4929931290    1.0569634979    0.1336054224           0.723
C451       C    0.4952013678    1.0737010908    0.1973730869           0.726
N452       N    0.4964423894    1.1052236889    0.2011885489          0.7265
H453       H    0.5043422671    0.9439401082    0.1939886473         -0.2631
N454       N    0.5049596923    0.9999832020    0.2843067561         -0.2618
C455       C    0.5005962519    1.0112767996    0.3199515718         -0.2652
C456       C    0.5000000000    1.0000000000    0.3576304949         -0.2646
C425       C    0.8576304949    0.5000000000    0.5000000000          0.7307
C426       C    0.8318164697    0.4863159744    0.5217128980         -0.2632
C427       C    0.7960585553    0.4926529405    0.5163428075          -0.262
C428       C    0.7812935230    0.5137205258    0.4895968084         -0.2659
C429       C    0.8082541342    0.5296203627    0.4680681758          0.7296
C430       C    0.8454829181    0.5229090992    0.4729602940          0.7278
N431       N    0.7446231564    0.5165468491    0.4859496496         -0.2657
O432       O    0.7796449092    0.4718921798    0.5400443993         -0.2593
H433       H    0.8397691489    0.4682749327    0.5448207893         -0.2597
H434       H    0.8663945776    0.5350804287    0.4545764394           0.723
C435       C    0.8026269131    0.5484216033    0.4442305998           0.726
N436       N    0.7988114511    0.5714732713    0.4226937726          0.7265
H437       H    0.8060113527    0.4636607809    0.5429072012         -0.2631
N438       N    0.7156932439    0.5035140638    0.5035000265         -0.2618
C439       C    0.6800484282    0.5083547003    0.4924025854 -0.26439999999999997
C440       C    0.6423695051    0.5000000000    0.5000000000         -0.2646
C409       C    1.1423695051    0.5000000000    0.5000000000          0.7307
C410       C    1.1681835303    0.5217128980    0.4863159744         -0.2632
C411       C    1.2039414447    0.5163428075    0.4926529405          -0.262
C412       C    1.2187064770    0.4895968084    0.5137205258         -0.2659
C413       C    1.1917458658    0.4680681758    0.5296203627          0.7296
C414       C    1.1545170819    0.4729602940    0.5229090992          0.7278
N415       N    1.2553768436    0.4859496496    0.5165468491         -0.2657
O416       O    1.2203550908    0.5400443993    0.4718921798         -0.2593
H417       H    1.1602308511    0.5448207893    0.4682749327         -0.2597
H418       H    1.1336054224    0.4545764394    0.5350804287           0.723
C419       C    1.1973730869    0.4442305998    0.5484216033           0.726
N420       N    1.2011885489    0.4226937726    0.5714732713          0.7265
H421       H    1.1939886473    0.5429072012    0.4636607809         -0.2631
N422       N    1.2843067561    0.5035000265    0.5035140638         -0.2618
C423       C    1.3199515718    0.4924025854    0.5083547003         -0.2652
C424       C    1.3576304949    0.5000000000    0.5000000000         -0.2646
C393       C    0.8576304949    0.5000000000    0.0000000000          0.7307
C394       C    0.8318164697    0.4771673928   -0.0117206886         -0.2632
C395       C    0.7960585553    0.4830741786   -0.0058807494          -0.262
C396       C    0.7812935230    0.5115699672    0.0127520619         -0.2659
C397       C    0.8082541342    0.5344139680    0.0266961812          0.7296
C398       C    0.8454829181    0.5289503707    0.0204413444          0.7278
N399       N    0.7446231564    0.5154516402    0.0152465530         -0.2657
O400       O    0.7796449092    0.4576379864   -0.0244757690         -0.2593
H401       H    0.8397691489    0.4525618765   -0.0276587686         -0.2597
H402       H    0.8663945776    0.5483337582    0.0309480880           0.723
C403       C    0.8026269131    0.5598132210    0.0433273153           0.726
N404       N    0.7988114511    0.5832945942    0.0643948125          0.7265
H405       H    0.8060113527    0.4540620967   -0.0324233835         -0.2631
N406       N    0.7156932439    0.4968227086    0.0038083657         -0.2618
C407       C    0.6800484282    0.5083029911    0.0076538922         -0.2652
C408       C    0.6423695051    0.5000000000    0.0000000000         -0.2646
C377       C    1.3576304949    0.5000000000    0.0000000000          0.7307
C378       C    1.3318164697    0.4792591770    0.0151169029         -0.2632
C379       C    1.2960585553    0.4871323301    0.0124695514          -0.262
C380       C    1.2812935230    0.5165942097   -0.0045947174         -0.2659
C381       C    1.3082541342    0.5393257967   -0.0187213514          0.7296
C382       C    1.3454829181    0.5312815338   -0.0166564752          0.7278
N383       N    1.2446231564    0.5205684965   -0.0069388410         -0.2657
O384       O    1.2796449092    0.4590808813    0.0268184487         -0.2593
H385       H    1.3397691489    0.4539542781    0.0299194677         -0.2597
H386       H    1.3663945776    0.5493862478   -0.0292392692           0.723
C387       C    1.3026269131    0.5656067742   -0.0339209203           0.726
N388       N    1.2988114511    0.5949866912   -0.0454115602          0.7265
H389       H    1.3060113527    0.4503742650    0.0264358314         -0.2631
N390       N    1.2156932439    0.5019714270    0.0045510774         -0.2618
C391       C    1.1800484282    0.5105712907   -0.0039710881         -0.2652
C392       C    1.1423695051    0.5000000000    0.0000000000         -0.2646
C361       C    1.0000000000    0.5000000000   -0.1423695051          0.7307
C362       C    1.0248806494    0.4937027165   -0.1681835303         -0.2632
C363       C    1.0165880813    0.4932248837   -0.2039414447          -0.262
C364       C    0.9828889492    0.4980787600   -0.2187064770         -0.2659
C365       C    0.9565300645    0.5027151418   -0.1917458658          0.7296
C366       C    0.9647643167    0.5037972554   -0.1545170819          0.7278
N367       N    0.9783273370    0.4987727093   -0.2553768436         -0.2657
O368       O    1.0479663528    0.4903650395   -0.2203550908         -0.2593
H369       H    1.0538793581    0.4893982161   -0.1602308511         -0.2597
H370       H    0.9432743325    0.5087255361   -0.1336054224           0.723
C371       C    0.9264776383    0.5070242428   -0.1973730869           0.726
N372       N    0.8949319316    0.5067366391   -0.2011885489          0.7265
H373       H    1.0559030188    0.4939651640   -0.1939886473         -0.2631
N374       N    0.9998668710    0.4950420663   -0.2843067561         -0.2618
C375       C    0.9887103301    0.4997448906   -0.3199515718         -0.2652
C376       C    1.0000000000    0.5000000000   -0.3576304949         -0.2646
C345       C    1.0000000000    0.5000000000    0.1423695051          0.7307
C346       C    0.9944576751    0.5250596315    0.1681835303         -0.2632
C347       C    0.9937293967    0.5167852964    0.2039414447          -0.262
C348       C    0.9975624128    0.4829548426    0.2187064770         -0.2659
C349       C    1.0013999115    0.4564678563    0.1917458658          0.7296
C350       C    1.0027304319    0.4646656362    0.1545170819          0.7278
N351       N    0.9981181586    0.4783743385    0.2553768436         -0.2657
O352       O    0.9918193476    0.5482356755    0.2203550908         -0.2593
H353       H    0.9910317016    0.5541752035    0.1602308511         -0.2597
H354       H    1.0070068710    0.4430365021    0.1336054224           0.723
C355       C    1.0047986322    0.4262989092    0.1973730869           0.726
N356       N    1.0035576106    0.3947763111    0.2011885489          0.7265
H357       H    0.9956577329    0.5560598918    0.1939886473         -0.2631
N358       N    0.9950403077    0.5000167980    0.2843067561         -0.2618
C359       C    0.9994037481    0.4887232004    0.3199515718         -0.2652
C360       C    1.0000000000    0.5000000000    0.3576304949         -0.2646
C329       C    1.0000000000   -0.1423695051    0.5000000000          0.7307
C330       C    1.0248806494   -0.1681835303    0.5062972835         -0.2632
C331       C    1.0165880813   -0.2039414447    0.5067751163          -0.262
C332       C    0.9828889492   -0.2187064770    0.5019212400         -0.2659
C333       C    0.9565300645   -0.1917458658    0.4972848582          0.7296
C334       C    0.9647643167   -0.1545170819    0.4962027446          0.7278
N335       N    0.9783273370   -0.2553768436    0.5012272907         -0.2657
O336       O    1.0479663528   -0.2203550908    0.5096349605         -0.2593
H337       H    1.0538793581   -0.1602308511    0.5106017839         -0.2597
H338       H    0.9432743325   -0.1336054224    0.4912744639           0.723
C339       C    0.9264776383   -0.1973730869    0.4929757572           0.726
N340       N    0.8949319316   -0.2011885489    0.4932633609          0.7265
H341       H    1.0559030188   -0.1939886473    0.5060348360         -0.2631
N342       N    0.9998668710   -0.2843067561    0.5049579337         -0.2618
C343       C    0.9887103301   -0.3199515718    0.5002551094         -0.2652
C344       C    1.0000000000   -0.3576304949    0.5000000000         -0.2646
C313       C    1.0000000000    0.3576304949    0.5000000000          0.7307
C314       C    1.0248806494    0.3318164697    0.5062972835         -0.2632
C315       C    1.0165880813    0.2960585553    0.5067751163          -0.262
C316       C    0.9828889492    0.2812935230    0.5019212400         -0.2659
C317       C    0.9565300645    0.3082541342    0.4972848582          0.7296
C318       C    0.9647643167    0.3454829181    0.4962027446          0.7278
N319       N    0.9783273370    0.2446231564    0.5012272907         -0.2657
O320       O    1.0479663528    0.2796449092    0.5096349605         -0.2593
H321       H    1.0538793581    0.3397691489    0.5106017839         -0.2597
H322       H    0.9432743325    0.3663945776    0.4912744639           0.723
C323       C    0.9264776383    0.3026269131    0.4929757572           0.726
N324       N    0.8949319316    0.2988114511    0.4932633609          0.7265
H325       H    1.0559030188    0.3060113527    0.5060348360         -0.2631
N326       N    0.9998668710    0.2156932439    0.5049579337         -0.2618
C327       C    0.9887103301    0.1800484282    0.5002551094         -0.2652
C328       C    1.0000000000    0.1423695051    0.5000000000         -0.2646
C297       C    0.8576304949   -0.0000000000    0.5000000000          0.7307
C298       C    0.8318164697    0.0133156064    0.4780592361         -0.2632
C299       C    0.7960585553    0.0070701793    0.4835355168          -0.262
C300       C    0.7812935230   -0.0135429865    0.5106332845         -0.2659
C301       C    0.8082541342   -0.0290771986    0.5324272078          0.7296
C302       C    0.8454829181   -0.0224494602    0.5274225138          0.7278
N303       N    0.7446231564   -0.0163073505    0.5143276265         -0.2657
O304       O    0.7796449092    0.0274279476    0.4594869014         -0.2593
H305       H    0.8397691489    0.0309640637    0.4546501399         -0.2597
H306       H    0.8663945776   -0.0343087736    0.5460091772           0.723
C307       C    0.8026269131   -0.0474734308    0.5565787153           0.726
N308       N    0.7988114511   -0.0701583170    0.5785015404          0.7265
H309       H    0.8060113527    0.0356098557    0.4564855779         -0.2631
N310       N    0.7156932439   -0.0035726367    0.4965597824         -0.2618
C311       C    0.6800484282   -0.0082252812    0.5077373429         -0.2652
C312       C    0.6423695051   -0.0000000000    0.5000000000         -0.2646
C281       C    1.3576304949   -0.0000000000    0.5000000000          0.7307
C282       C    1.3318164697    0.0236778980    0.5099025067         -0.2632
C283       C    1.2960585553    0.0173332464    0.5045414988          -0.262
C284       C    1.2812935230   -0.0125301416    0.4881900560         -0.2659
C285       C    1.3082541342   -0.0363929692    0.4760717933          0.7296
C286       C    1.3454829181   -0.0304577649    0.4818810299          0.7278
N287       N    1.2446231564   -0.0165946999    0.4860061979         -0.2657
O288       O    1.2796449092    0.0441434248    0.5210941110         -0.2593
H289       H    1.3397691489    0.0494525230    0.5238711335         -0.2597
H290       H    1.3663945776   -0.0506022033    0.4729195023           0.723
C291       C    1.3026269131   -0.0630130115    0.4614741899           0.726
N292       N    1.2988114511   -0.0880673488    0.4423040437          0.7265
H293       H    1.3060113527    0.0483288278    0.5287383221         -0.2631
N294       N    1.2156932439    0.0028702975    0.4959552228         -0.2618
C295       C    1.1800484282   -0.0088751496    0.4930176332         -0.2652
C296       C    1.1423695051   -0.0000000000    0.5000000000         -0.2646
C265       C    0.0000000000   -0.1423695051   -0.0000000000          0.7307
C266       C    0.0208866861   -0.1681835303   -0.0149147188         -0.2632
C267       C    0.0158913941   -0.2039414447   -0.0082782990          -0.262
C268       C   -0.0095937354   -0.2187064770    0.0142982329         -0.2659
C269       C   -0.0301685415   -0.1917458658    0.0314144296          0.7296
C270       C   -0.0256720333   -0.1545170819    0.0244319305          0.7278
N271       N   -0.0130716437   -0.2553768436    0.0173303980         -0.2657
O272       O    0.0383549073   -0.2203550908   -0.0303727601         -0.2593
H273       H    0.0429145022   -0.1602308511   -0.0342597219         -0.2597
H274       H   -0.0433225585   -0.1336054224    0.0376442859           0.723
C275       C   -0.0528809380   -0.1973730869    0.0515604893           0.726
N276       N   -0.0730510398   -0.2011885489    0.0758170620          0.7265
H277       H    0.0407377242   -0.1939886473   -0.0387557038         -0.2631
N278       N    0.0036970608   -0.2843067561    0.0033061415         -0.2618
C279       C   -0.0071024147   -0.3199515718    0.0087793754         -0.2652
C280       C    0.0000000000   -0.3576304949    0.0000000000         -0.2646
C249       C   -0.0000000000    0.3576304949    0.0000000000          0.7307
C250       C   -0.0189023925    0.3318164697    0.0173609347         -0.2632
C251       C   -0.0147576560    0.2960585553    0.0101625898          -0.262
C252       C    0.0077700062    0.2812935230   -0.0153657485         -0.2659
C253       C    0.0260931950    0.3082541342   -0.0348733775          0.7296
C254       C    0.0224858793    0.3454829181   -0.0273926588          0.7278
N255       N    0.0108502938    0.2446231564   -0.0188011087         -0.2657
O256       O   -0.0343455096    0.2796449092    0.0348423512         -0.2593
H257       H   -0.0383946283    0.3397691489    0.0392585731         -0.2597
H258       H    0.0383850154    0.3663945776   -0.0426676333           0.723
C259       C    0.0461667292    0.3026269131   -0.0576498983           0.726
N260       N    0.0632135928    0.2988114511   -0.0841945544          0.7265
H261       H   -0.0356835031    0.3060113527    0.0434540488         -0.2631
N262       N   -0.0040742078    0.2156932439   -0.0028283671         -0.2618
C263       C    0.0059734866    0.1800484282   -0.0095832763         -0.2652
C264       C   -0.0000000000    0.1423695051    0.0000000000         -0.2646
C233       C   -0.1423695051   -0.0000000000    0.0000000000          0.7307
C234       C   -0.1681835303   -0.0210629463    0.0146647465         -0.2632
C235       C   -0.2039414447   -0.0131343734    0.0121883090          -0.262
C236       C   -0.2187064770    0.0166897103   -0.0042347130         -0.2659
C237       C   -0.1917458658    0.0397215354   -0.0178663624          0.7296
C238       C   -0.1545170819    0.0316344917   -0.0159759651          0.7278
N239       N   -0.2553768436    0.0207137702   -0.0064923252         -0.2657
O240       O   -0.2203550908   -0.0414896233    0.0259271022         -0.2593
H241       H   -0.1602308511   -0.0466821015    0.0289165083         -0.2597
H242       H   -0.1336054224    0.0500071333   -0.0281642140           0.723
C243       C   -0.1973730869    0.0663251281   -0.0324939231           0.726
N244       N   -0.2011885489    0.0959467118   -0.0433463931          0.7265
H245       H   -0.1939886473   -0.0501859267    0.0253562520         -0.2631
N246       N   -0.2843067561    0.0018725269    0.0045926543         -0.2618
C247       C   -0.3199515718    0.0106547113   -0.0037415041         -0.2652
C248       C   -0.3576304949   -0.0000000000    0.0000000000         -0.2646
C217       C    0.3576304949   -0.0000000000    0.0000000000          0.7307
C218       C    0.3318164697    0.0004782109    0.0256607445         -0.2632
C219       C    0.2960585553    0.0028280856    0.0176937439          -0.262
C220       C    0.2812935230    0.0057595774   -0.0162267215         -0.2659
C221       C    0.3082541342    0.0072347497   -0.0429495714          0.7296
C222       C    0.3454829181    0.0043096580   -0.0351766879          0.7278
N223       N    0.2446231564    0.0061204439   -0.0208266831         -0.2657
O224       O    0.2796449092   -0.0015178320    0.0489009167         -0.2593
H225       H    0.3397691489   -0.0019200778    0.0548789244         -0.2597
H226       H    0.3663945776    0.0043940772   -0.0572243691           0.723
C227       C    0.3026269131    0.0098680230   -0.0731949437           0.726
N228       N    0.2988114511    0.0173170856   -0.1038498909          0.7265
H229       H    0.3060113527   -0.0068274218    0.0558117646         -0.2631
N230       N    0.2156932439    0.0048584629    0.0009970797         -0.2618
C231       C    0.1800484282    0.0028140915   -0.0109362981         -0.2652
C232       C    0.1423695051   -0.0000000000    0.0000000000         -0.2646
C201       C   -0.0000000000    0.0000000000   -0.3576304949          0.7307
C202       C   -0.0181916340    0.0181043351   -0.3318164697         -0.2632
C203       C   -0.0143386334    0.0107457077   -0.2960585553          -0.262
C204       C    0.0071481254   -0.0156647224   -0.2812935230         -0.2659
C205       C    0.0246750116   -0.0358908218   -0.3082541342          0.7296
C206       C    0.0213703138   -0.0282715796   -0.3454829181          0.7278
N207       N    0.0100882990   -0.0192207384   -0.2446231564         -0.2657
O208       O   -0.0329219430    0.0361904564   -0.2796449092         -0.2593
H209       H   -0.0367908707    0.0407653637   -0.3397691489         -0.2597
H210       H    0.0366446786   -0.0441713013   -0.3663945776           0.723
C211       C    0.0438198669   -0.0594533172   -0.3026269131           0.726
N212       N    0.0597895082   -0.0866596562   -0.2988114511          0.7265
H213       H   -0.0339138272    0.0448488470   -0.3060113527         -0.2631
N214       N   -0.0041842573   -0.0026628595   -0.2156932439         -0.2618
C215       C    0.0055847280   -0.0098149142   -0.1800484282         -0.2652
C216       C    0.0000000000    0.0000000000   -0.1423695051         -0.2646
C185       C    0.0000000000   -0.0000000000    0.1423695051          0.7307
C186       C   -0.0009241821   -0.0256485552    0.1681835303         -0.2632
C187       C    0.0018573696   -0.0178218074    0.2039414447          -0.262
C188       C    0.0066373384    0.0158878873    0.2187064770         -0.2659
C189       C    0.0095700033    0.0424902615    0.1917458658          0.7296
C190       C    0.0062246967    0.0348887614    0.1545170819          0.7278
N191       N    0.0072489320    0.0204612695    0.2553768436         -0.2657
O192       O   -0.0041867039   -0.0487449995    0.2203550908         -0.2593
H193       H   -0.0049148888   -0.0546921102    0.1602308511         -0.2597
H194       H    0.0075133108    0.0568989147    0.1336054224           0.723
C195       C    0.0138514524    0.0725466396    0.1973730869           0.726
N196       N    0.0229638736    0.1027489261    0.2011885489          0.7265
H197       H   -0.0098658612   -0.0553555014    0.1939886473         -0.2631
N198       N    0.0047967454   -0.0012609772    0.2843067561         -0.2618
C199       C    0.0034072688    0.0107662550    0.3199515718         -0.2652
C200       C    0.0000000000    0.0000000000    0.3576304949         -0.2646
loop_
_geom_bond_atom_site_label_1
_geom_bond_atom_site_label_2
_geom_bond_distance
_geom_bond_site_symmetry_2
_ccdc_geom_bond_type
Zn1          O5 1.942       .   S
Zn1          O6 1.922       .   S
Zn1         O10 1.922       .   S
Zn1         O17 1.922       .   S
Zn2          O5 1.942       .   S
Zn2          O7 1.922       .   S
Zn2          O9 1.922       .   S
Zn2         O13 1.922       .   S
Zn3          O5 1.942       .   S
Zn3          O8 1.922       .   S
Zn3         O11 1.922       .   S
Zn3         O14 1.922       .   S
Zn4          O5 1.942       .   S
Zn4         O12 1.922       .   S
Zn4         O15 1.922       .   S
Zn4         O16 1.922       .   S
O6          C18 1.304       .   A
O7          C19 1.304       .   A
O8          C20 1.304       .   A
O9          C18 1.304       .   A
O10         C20 1.304       .   A
O11         C19 1.304       .   A
O12         C21 1.304       .   A
O13         C22 1.304       .   A
O14         C21 1.304       .   A
O15         C22 1.304       .   A
O16         C23 1.304       .   A
O17         C23 1.304       .   A
C18        C264 1.540       .   S
C19        C185 1.540       .   S
C20        C233 1.540       .   S
C21        C265 1.540       .   S
C22        C232 1.540       .   S
C23        C216 1.540       .   S
Zn24        O28 1.942       .   S
Zn24        O29 1.922       .   S
Zn24        O33 1.922       .   S
Zn24        O40 1.922       .   S
Zn25        O28 1.942       .   S
Zn25        O30 1.922       .   S
Zn25        O32 1.922       .   S
Zn25        O36 1.922       .   S
Zn26        O28 1.942       .   S
Zn26        O31 1.922       .   S
Zn26        O34 1.922       .   S
Zn26        O37 1.922       .   S
Zn27        O28 1.942       .   S
Zn27        O35 1.922       .   S
Zn27        O38 1.922       .   S
Zn27        O39 1.922       .   S
O29         C41 1.304       .   A
O30         C42 1.304       .   A
O31         C43 1.304       .   A
O32         C41 1.304       .   A
O33         C43 1.304       .   A
O34         C42 1.304       .   A
O35         C44 1.304       .   A
O36         C45 1.304       .   A
O37         C44 1.304       .   A
O38         C45 1.304       .   A
O39         C46 1.304       .   A
O40         C46 1.304       .   A
C41        C200 1.540   1_655   S
C42        C296 1.540       .   S
C43        C328 1.540       .   S
C44        C201 1.540   1_656   S
C45        C329 1.540       .   S
C46        C297 1.540       .   S
Zn47        O51 1.942       .   S
Zn47        O52 1.922       .   S
Zn47        O56 1.922       .   S
Zn47        O63 1.922       .   S
Zn48        O51 1.942       .   S
Zn48        O53 1.922       .   S
Zn48        O55 1.922       .   S
Zn48        O59 1.922       .   S
Zn49        O51 1.942       .   S
Zn49        O54 1.922       .   S
Zn49        O57 1.922       .   S
Zn49        O60 1.922       .   S
Zn50        O51 1.942       .   S
Zn50        O58 1.922       .   S
Zn50        O61 1.922       .   S
Zn50        O62 1.922       .   S
O52         C64 1.304       .   A
O53         C65 1.304       .   A
O54         C66 1.304       .   A
O55         C64 1.304       .   A
O56         C66 1.304       .   A
O57         C65 1.304       .   A
O58         C67 1.304       .   A
O59         C68 1.304       .   A
O60         C67 1.304       .   A
O61         C68 1.304       .   A
O62         C69 1.304       .   A
O63         C69 1.304       .   A
C64        C280 1.540   1_665   S
C65        C393 1.540       .   S
C66        C361 1.540       .   S
C67        C249 1.540   1_655   S
C68        C345 1.540       .   S
C69        C392 1.540       .   S
Zn70        O74 1.942       .   S
Zn70        O75 1.922       .   S
Zn70        O79 1.922       .   S
Zn70        O86 1.922       .   S
Zn71        O74 1.942       .   S
Zn71        O76 1.922       .   S
Zn71        O78 1.922       .   S
Zn71        O82 1.922       .   S
Zn72        O74 1.942       .   S
Zn72        O77 1.922       .   S
Zn72        O80 1.922       .   S
Zn72        O83 1.922       .   S
Zn73        O74 1.942       .   S
Zn73        O81 1.922       .   S
Zn73        O84 1.922       .   S
Zn73        O85 1.922       .   S
O75         C87 1.304       .   A
O76         C88 1.304       .   A
O77         C89 1.304       .   A
O78         C87 1.304       .   A
O79         C89 1.304       .   A
O80         C88 1.304       .   A
O81         C90 1.304       .   A
O82         C91 1.304       .   A
O83         C90 1.304       .   A
O84         C91 1.304       .   A
O85         C92 1.304       .   A
O86         C92 1.304       .   A
C87        C376 1.540   1_556   S
C88        C409 1.540       .   S
C89        C313 1.540       .   S
C90        C360 1.540       .   S
C91        C344 1.540   1_565   S
C92        C425 1.540       .   S
Zn93        O97 1.942       .   S
Zn93        O98 1.922       .   S
Zn93       O102 1.922       .   S
Zn93       O109 1.922       .   S
Zn94        O97 1.942       .   S
Zn94        O99 1.922       .   S
Zn94       O101 1.922       .   S
Zn94       O105 1.922       .   S
Zn95        O97 1.942       .   S
Zn95       O100 1.922       .   S
Zn95       O103 1.922       .   S
Zn95       O106 1.922       .   S
Zn96        O97 1.942       .   S
Zn96       O104 1.922       .   S
Zn96       O107 1.922       .   S
Zn96       O108 1.922       .   S
O98        C110 1.304       .   A
O99        C111 1.304       .   A
O100       C112 1.304       .   A
O101       C110 1.304       .   A
O102       C112 1.304       .   A
O103       C111 1.304       .   A
O104       C113 1.304       .   A
O105       C114 1.304       .   A
O106       C113 1.304       .   A
O107       C114 1.304       .   A
O108       C115 1.304       .   A
O109       C115 1.304       .   A
C110       C217 1.540   1_565   S
C111       C441 1.540       .   S
C112       C504 1.540       .   S
C113       C248 1.540   1_665   S
C114       C473 1.540       .   S
C115       C472 1.540       .   S
Zn116      O120 1.942       .   S
Zn116      O121 1.922       .   S
Zn116      O125 1.922       .   S
Zn116      O132 1.922       .   S
Zn117      O120 1.942       .   S
Zn117      O122 1.922       .   S
Zn117      O124 1.922       .   S
Zn117      O128 1.922       .   S
Zn118      O120 1.942       .   S
Zn118      O123 1.922       .   S
Zn118      O126 1.922       .   S
Zn118      O129 1.922       .   S
Zn119      O120 1.942       .   S
Zn119      O127 1.922       .   S
Zn119      O130 1.922       .   S
Zn119      O131 1.922       .   S
O121       C133 1.304       .   A
O122       C134 1.304       .   A
O123       C135 1.304       .   A
O124       C133 1.304       .   A
O125       C135 1.304       .   A
O126       C134 1.304       .   A
O127       C136 1.304       .   A
O128       C137 1.304       .   A
O129       C136 1.304       .   A
O130       C137 1.304       .   A
O131       C138 1.304       .   A
O132       C138 1.304       .   A
C133       C281 1.540   1_465   S
C134       C456 1.540       .   S
C135       C505 1.540       .   S
C136       C312 1.540   1_565   S
C137       C536 1.540       .   S
C138       C457 1.540   1_556   S
Zn139      O143 1.942       .   S
Zn139      O144 1.922       .   S
Zn139      O148 1.922       .   S
Zn139      O155 1.922       .   S
Zn140      O143 1.942       .   S
Zn140      O145 1.922       .   S
Zn140      O147 1.922       .   S
Zn140      O151 1.922       .   S
Zn141      O143 1.942       .   S
Zn141      O146 1.922       .   S
Zn141      O149 1.922       .   S
Zn141      O152 1.922       .   S
Zn142      O143 1.942       .   S
Zn142      O150 1.922       .   S
Zn142      O153 1.922       .   S
Zn142      O154 1.922       .   S
O144       C156 1.304       .   A
O145       C157 1.304       .   A
O146       C158 1.304       .   A
O147       C156 1.304       .   A
O148       C158 1.304       .   A
O149       C157 1.304       .   A
O150       C159 1.304       .   A
O151       C160 1.304       .   A
O152       C159 1.304       .   A
O153       C160 1.304       .   A
O154       C161 1.304       .   A
O155       C161 1.304       .   A
C156       C488 1.540   1_545   S
C157       C377 1.540   1_455   S
C158       C552 1.540       .   S
C159       C489 1.540       .   S
C160       C568 1.540       .   S
C161       C408 1.540       .   S
Zn162      O166 1.942       .   S
Zn162      O167 1.922       .   S
Zn162      O171 1.922       .   S
Zn162      O178 1.922       .   S
Zn163      O166 1.942       .   S
Zn163      O168 1.922       .   S
Zn163      O170 1.922       .   S
Zn163      O174 1.922       .   S
Zn164      O166 1.942       .   S
Zn164      O169 1.922       .   S
Zn164      O172 1.922       .   S
Zn164      O175 1.922       .   S
Zn165      O166 1.942       .   S
Zn165      O173 1.922       .   S
Zn165      O176 1.922       .   S
Zn165      O177 1.922       .   S
O167       C179 1.304       .   A
O168       C180 1.304       .   A
O169       C181 1.304       .   A
O170       C179 1.304       .   A
O171       C181 1.304       .   A
O172       C180 1.304       .   A
O173       C182 1.304       .   A
O174       C183 1.304       .   A
O175       C182 1.304       .   A
O176       C183 1.304       .   A
O177       C184 1.304       .   A
O178       C184 1.304       .   A
C179       C520 1.540   1_545   S
C180       C424 1.540   1_455   S
C181       C553 1.540   1_556   S
C182       C521 1.540       .   S
C183       C537 1.540       .   S
C184       C440 1.540       .   S
C553       C554 0.032       .   A
C553       C558 0.033       .   A
C554       C555 0.033       .   A
C554       H561 0.027       .   A
C555       C556 0.033       .   A
C555       O560 0.031       .   A
C556       C557 0.034       .   A
C556       N559 0.033       .   A
C557       C558 0.034       .   A
C557       C563 0.027       .   A
C558       H562 0.027       .   A
N559       N566 0.032       .   A
O560       H565 0.025       .   A
C563       N564 0.028       .   A
N566       C567 0.033       .   A
C567       C568 0.035       .   A
C537       C538 0.032       .   A
C537       C542 0.033       .   A
C538       C539 0.033       .   A
C538       H545 0.027       .   A
C539       C540 0.033       .   A
C539       O544 0.031       .   A
C540       C541 0.034       .   A
C540       N543 0.033       .   A
C541       C542 0.034       .   A
C541       C547 0.027       .   A
C542       H546 0.027       .   A
N543       N550 0.032       .   A
O544       H549 0.025       .   A
C547       N548 0.028       .   A
N550       C551 0.033       .   A
C551       C552 0.035       .   A
C521       C522 0.032       .   A
C521       C526 0.033       .   A
C522       C523 0.033       .   A
C522       H529 0.027       .   A
C523       C524 0.033       .   A
C523       O528 0.031       .   A
C524       C525 0.034       .   A
C524       N527 0.033       .   A
C525       C526 0.034       .   A
C525       C531 0.027       .   A
C526       H530 0.027       .   A
N527       N534 0.032       .   A
O528       H533 0.025       .   A
C531       N532 0.028       .   A
N534       C535 0.033       .   A
C535       C536 0.035       .   A
C505       C506 0.032       .   A
C505       C510 0.033       .   A
C506       C507 0.033       .   A
C506       H513 0.027       .   A
C507       C508 0.033       .   A
C507       O512 0.031       .   A
C508       C509 0.034       .   A
C508       N511 0.033       .   A
C509       C510 0.034       .   A
C509       C515 0.027       .   A
C510       H514 0.027       .   A
N511       N518 0.032       .   A
O512       H517 0.025       .   A
C515       N516 0.028       .   A
N518       C519 0.033       .   A
C519       C520 0.035       .   A
C489       C490 0.032       .   A
C489       C494 0.033       .   A
C490       C491 0.033       .   A
C490       H497 0.027       .   A
C491       C492 0.033       .   A
C491       O496 0.031       .   A
C492       C493 0.034       .   A
C492       N495 0.033       .   A
C493       C494 0.034       .   A
C493       C499 0.027       .   A
C494       H498 0.027       .   A
N495       N502 0.032       .   A
O496       H501 0.025       .   A
C499       N500 0.028       .   A
N502       C503 0.033       .   A
C503       C504 0.035       .   A
C473       C474 0.032       .   A
C473       C478 0.033       .   A
C474       C475 0.033       .   A
C474       H481 0.027       .   A
C475       C476 0.033       .   A
C475       O480 0.031       .   A
C476       C477 0.034       .   A
C476       N479 0.033       .   A
C477       C478 0.034       .   A
C477       C483 0.027       .   A
C478       H482 0.027       .   A
N479       N486 0.032       .   A
O480       H485 0.025       .   A
C483       N484 0.028       .   A
N486       C487 0.033       .   A
C487       C488 0.035       .   A
C457       C458 0.032       .   A
C457       C462 0.033       .   A
C458       C459 0.033       .   A
C458       H465 0.027       .   A
C459       C460 0.033       .   A
C459       O464 0.031       .   A
C460       C461 0.034       .   A
C460       N463 0.033       .   A
C461       C462 0.034       .   A
C461       C467 0.027       .   A
C462       H466 0.027       .   A
N463       N470 0.032       .   A
O464       H469 0.025       .   A
C467       N468 0.028       .   A
N470       C471 0.033       .   A
C471       C472 0.035       .   A
C441       C442 0.032       .   A
C441       C446 0.033       .   A
C442       C443 0.033       .   A
C442       H449 0.027       .   A
C443       C444 0.033       .   A
C443       O448 0.031       .   A
C444       C445 0.034       .   A
C444       N447 0.033       .   A
C445       C446 0.034       .   A
C445       C451 0.027       .   A
C446       H450 0.027       .   A
N447       N454 0.032       .   A
O448       H453 0.025       .   A
C451       N452 0.028       .   A
N454       C455 0.033       .   A
C455       C456 0.035       .   A
C425       C426 0.032       .   A
C425       C430 0.033       .   A
C426       C427 0.033       .   A
C426       H433 0.027       .   A
C427       C428 0.033       .   A
C427       O432 0.031       .   A
C428       C429 0.034       .   A
C428       N431 0.033       .   A
C429       C430 0.034       .   A
C429       C435 0.027       .   A
C430       H434 0.027       .   A
N431       N438 0.032       .   A
O432       H437 0.025       .   A
C435       N436 0.028       .   A
N438       C439 0.033       .   A
C439       C440 0.035       .   A
C409       C410 0.032       .   A
C409       C414 0.033       .   A
C410       C411 0.033       .   A
C410       H417 0.027       .   A
C411       C412 0.033       .   A
C411       O416 0.031       .   A
C412       C413 0.034       .   A
C412       N415 0.033       .   A
C413       C414 0.034       .   A
C413       C419 0.027       .   A
C414       H418 0.027       .   A
N415       N422 0.032       .   A
O416       H421 0.025       .   A
C419       N420 0.028       .   A
N422       C423 0.033       .   A
C423       C424 0.035       .   A
C393       C394 0.032       .   A
C393       C398 0.033       .   A
C394       C395 0.033       .   A
C394       H401 0.027       .   A
C395       C396 0.033       .   A
C395       O400 0.031       .   A
C396       C397 0.034       .   A
C396       N399 0.033       .   A
C397       C398 0.034       .   A
C397       C403 0.027       .   A
C398       H402 0.027       .   A
N399       N406 0.032       .   A
O400       H405 0.025       .   A
C403       N404 0.028       .   A
N406       C407 0.033       .   A
C407       C408 0.035       .   A
C377       C378 0.032       .   A
C377       C382 0.033       .   A
C378       C379 0.033       .   A
C378       H385 0.027       .   A
C379       C380 0.033       .   A
C379       O384 0.031       .   A
C380       C381 0.034       .   A
C380       N383 0.033       .   A
C381       C382 0.034       .   A
C381       C387 0.027       .   A
C382       H386 0.027       .   A
N383       N390 0.032       .   A
O384       H389 0.025       .   A
C387       N388 0.028       .   A
N390       C391 0.033       .   A
C391       C392 0.035       .   A
C361       C362 0.032       .   A
C361       C366 0.033       .   A
C362       C363 0.033       .   A
C362       H369 0.027       .   A
C363       C364 0.033       .   A
C363       O368 0.031       .   A
C364       C365 0.034       .   A
C364       N367 0.033       .   A
C365       C366 0.034       .   A
C365       C371 0.027       .   A
C366       H370 0.027       .   A
N367       N374 0.032       .   A
O368       H373 0.025       .   A
C371       N372 0.028       .   A
N374       C375 0.033       .   A
C375       C376 0.035       .   A
C345       C346 0.032       .   A
C345       C350 0.033       .   A
C346       C347 0.033       .   A
C346       H353 0.027       .   A
C347       C348 0.033       .   A
C347       O352 0.031       .   A
C348       C349 0.034       .   A
C348       N351 0.033       .   A
C349       C350 0.034       .   A
C349       C355 0.027       .   A
C350       H354 0.027       .   A
N351       N358 0.032       .   A
O352       H357 0.025       .   A
C355       N356 0.028       .   A
N358       C359 0.033       .   A
C359       C360 0.035       .   A
C329       C330 0.032       .   A
C329       C334 0.033       .   A
C330       C331 0.033       .   A
C330       H337 0.027       .   A
C331       C332 0.033       .   A
C331       O336 0.031       .   A
C332       C333 0.034       .   A
C332       N335 0.033       .   A
C333       C334 0.034       .   A
C333       C339 0.027       .   A
C334       H338 0.027       .   A
N335       N342 0.032       .   A
O336       H341 0.025       .   A
C339       N340 0.028       .   A
N342       C343 0.033       .   A
C343       C344 0.035       .   A
C313       C314 0.032       .   A
C313       C318 0.033       .   A
C314       C315 0.033       .   A
C314       H321 0.027       .   A
C315       C316 0.033       .   A
C315       O320 0.031       .   A
C316       C317 0.034       .   A
C316       N319 0.033       .   A
C317       C318 0.034       .   A
C317       C323 0.027       .   A
C318       H322 0.027       .   A
N319       N326 0.032       .   A
O320       H325 0.025       .   A
C323       N324 0.028       .   A
N326       C327 0.033       .   A
C327       C328 0.035       .   A
C297       C298 0.032       .   A
C297       C302 0.033       .   A
C298       C299 0.033       .   A
C298       H305 0.027       .   A
C299       C300 0.033       .   A
C299       O304 0.031       .   A
C300       C301 0.034       .   A
C300       N303 0.033       .   A
C301       C302 0.034       .   A
C301       C307 0.027       .   A
C302       H306 0.027       .   A
N303       N310 0.032       .   A
O304       H309 0.025       .   A
C307       N308 0.028       .   A
N310       C311 0.033       .   A
C311       C312 0.035       .   A
C281       C282 0.032       .   A
C281       C286 0.033       .   A
C282       C283 0.033       .   A
C282       H289 0.027       .   A
C283       C284 0.033       .   A
C283       O288 0.031       .   A
C284       C285 0.034       .   A
C284       N287 0.033       .   A
C285       C286 0.034       .   A
C285       C291 0.027       .   A
C286       H290 0.027       .   A
N287       N294 0.032       .   A
O288       H293 0.025       .   A
C291       N292 0.028       .   A
N294       C295 0.033       .   A
C295       C296 0.035       .   A
C265       C266 0.032       .   A
C265       C270 0.033       .   A
C266       C267 0.033       .   A
C266       H273 0.027       .   A
C267       C268 0.033       .   A
C267       O272 0.031       .   A
C268       C269 0.034       .   A
C268       N271 0.033       .   A
C269       C270 0.034       .   A
C269       C275 0.027       .   A
C270       H274 0.027       .   A
N271       N278 0.032       .   A
O272       H277 0.025       .   A
C275       N276 0.028       .   A
N278       C279 0.033       .   A
C279       C280 0.035       .   A
C249       C250 0.032       .   A
C249       C254 0.033       .   A
C250       C251 0.033       .   A
C250       H257 0.027       .   A
C251       C252 0.033       .   A
C251       O256 0.031       .   A
C252       C253 0.034       .   A
C252       N255 0.033       .   A
C253       C254 0.034       .   A
C253       C259 0.027       .   A
C254       H258 0.027       .   A
N255       N262 0.032       .   A
O256       H261 0.025       .   A
C259       N260 0.028       .   A
N262       C263 0.033       .   A
C263       C264 0.035       .   A
C233       C234 0.032       .   A
C233       C238 0.033       .   A
C234       C235 0.033       .   A
C234       H241 0.027       .   A
C235       C236 0.033       .   A
C235       O240 0.031       .   A
C236       C237 0.034       .   A
C236       N239 0.033       .   A
C237       C238 0.034       .   A
C237       C243 0.027       .   A
C238       H242 0.027       .   A
N239       N246 0.032       .   A
O240       H245 0.025       .   A
C243       N244 0.028       .   A
N246       C247 0.033       .   A
C247       C248 0.035       .   A
C217       C218 0.032       .   A
C217       C222 0.033       .   A
C218       C219 0.033       .   A
C218       H225 0.027       .   A
C219       C220 0.033       .   A
C219       O224 0.031       .   A
C220       C221 0.034       .   A
C220       N223 0.033       .   A
C221       C222 0.034       .   A
C221       C227 0.027       .   A
C222       H226 0.027       .   A
N223       N230 0.032       .   A
O224       H229 0.025       .   A
C227       N228 0.028       .   A
N230       C231 0.033       .   A
C231       C232 0.035       .   A
C201       C202 0.032       .   A
C201       C206 0.033       .   A
C202       C203 0.033       .   A
C202       H209 0.027       .   A
C203       C204 0.033       .   A
C203       O208 0.031       .   A
C204       C205 0.034       .   A
C204       N207 0.033       .   A
C205       C206 0.034       .   A
C205       C211 0.027       .   A
C206       H210 0.027       .   A
N207       N214 0.032       .   A
O208       H213 0.025       .   A
C211       N212 0.028       .   A
N214       C215 0.033       .   A
C215       C216 0.035       .   A
C185       C186 0.032       .   A
C185       C190 0.033       .   A
C186       C187 0.033       .   A
C186       H193 0.027       .   A
C187       C188 0.033       .   A
C187       O192 0.031       .   A
C188       C189 0.034       .   A
C188       N191 0.033       .   A
C189       C190 0.034       .   A
C189       C195 0.027       .   A
C190       H194 0.027       .   A
N191       N198 0.032       .   A
O192       H197 0.025       .   A
C195       N196 0.028       .   A
N198       C199 0.033       .   A
C199       C200 0.035       .   A
