data_pcu_v1-6c_Zn_1_Ch_1-53_fer_tobacco
_audit_creation_date              2021-04-07
_audit_creation_method            'tobacco_3.0'
_symmetry_space_group_name_H-M    'P1'
_symmetry_Int_Tables_number       1
_symmetry_cell_setting            triclinic
loop_
_symmetry_equiv_pos_as_xyz
  x,y,z
_cell_length_a                    35.866148664607636
_cell_length_b                    35.866148664607636
_cell_length_c                    35.866148664607636
_cell_angle_alpha                 90.0
_cell_angle_beta                  90.0
_cell_angle_gamma                 90.0
loop_
_atom_site_label
_atom_site_type_symbol
_atom_site_fract_x
_atom_site_fract_y
_atom_site_fract_z
_atom_site_charge
Zn1       Zn    0.0312606745   -0.0312606745    0.0312606745          1.4972
Zn2       Zn    0.0312606745    0.0312606745   -0.0312606745          1.4936
Zn3       Zn   -0.0312606745   -0.0312606745   -0.0312606745          1.4911
Zn4       Zn   -0.0312606745    0.0312606745    0.0312606745          1.4948
O5         O    0.0000000000    0.0000000000    0.0000000000         -2.1006
O6         O    0.0835495338   -0.0229743095    0.0229743095         -1.0069
O7         O    0.0229743095    0.0229743095   -0.0835495338         -1.0051
O8         O   -0.0229743095   -0.0835495338   -0.0229743095         -1.0003
O9         O    0.0835495338    0.0229743095   -0.0229743095          -1.007
O10        O    0.0229743095   -0.0835495338    0.0229743095          -1.003
O11        O   -0.0229743095   -0.0229743095   -0.0835495338         -1.0089
O12        O   -0.0835495338    0.0229743095    0.0229743095         -1.0028
O13        O    0.0229743095    0.0835495338   -0.0229743095         -1.0103
O14        O   -0.0835495338   -0.0229743095   -0.0229743095         -1.0042
O15        O   -0.0229743095    0.0835495338    0.0229743095         -1.0089
O16        O   -0.0229743095    0.0229743095    0.0835495338          -1.008
O17        O    0.0229743095   -0.0229743095    0.0835495338         -1.0059
C18        C    0.0998936360   -0.0000000000   -0.0000000000           0.512
C19        C   -0.0000000000   -0.0000000000   -0.0998936360          0.5169
C20        C    0.0000000000   -0.0998936360   -0.0000000000          0.5065
C21        C   -0.0998936360    0.0000000000    0.0000000000          0.5103
C22        C   -0.0000000000    0.0998936360    0.0000000000          0.5216
C23        C    0.0000000000    0.0000000000    0.0998936360          0.5121
Zn24      Zn    1.0312606745    0.0312606745    0.4687393255          1.4972
Zn25      Zn    0.9687393255   -0.0312606745    0.4687393255          1.4936
Zn26      Zn    1.0312606745   -0.0312606745    0.5312606745          1.4911
Zn27      Zn    0.9687393255    0.0312606745    0.5312606745          1.4948
O28        O    1.0000000000    0.0000000000    0.5000000000         -2.1006
O29        O    1.0229743095    0.0229743095    0.4164504662         -1.0069
O30        O    0.9770256905   -0.0835495338    0.4770256905         -1.0051
O31        O    1.0835495338   -0.0229743095    0.5229743095         -1.0003
O32        O    0.9770256905   -0.0229743095    0.4164504662          -1.007
O33        O    1.0835495338    0.0229743095    0.4770256905          -1.003
O34        O    1.0229743095   -0.0835495338    0.5229743095         -1.0089
O35        O    0.9770256905    0.0229743095    0.5835495338         -1.0028
O36        O    0.9164504662   -0.0229743095    0.4770256905         -1.0103
O37        O    1.0229743095   -0.0229743095    0.5835495338         -1.0042
O38        O    0.9164504662    0.0229743095    0.5229743095         -1.0089
O39        O    0.9770256905    0.0835495338    0.5229743095          -1.008
O40        O    1.0229743095    0.0835495338    0.4770256905         -1.0059
C41        C    1.0000000000    0.0000000000    0.4001063640           0.512
C42        C    1.0000000000   -0.0998936360    0.5000000000          0.5169
C43        C    1.0998936360    0.0000000000    0.5000000000          0.5065
C44        C    1.0000000000    0.0000000000    0.5998936360          0.5103
C45        C    0.9001063640    0.0000000000    0.5000000000          0.5216
C46        C    1.0000000000    0.0998936360    0.5000000000          0.5121
Zn47      Zn    0.9687393255    0.4687393255   -0.0312606745          1.4972
Zn48      Zn    1.0312606745    0.4687393255    0.0312606745          1.4936
Zn49      Zn    1.0312606745    0.5312606745   -0.0312606745          1.4911
Zn50      Zn    0.9687393255    0.5312606745    0.0312606745          1.4948
O51        O    1.0000000000    0.5000000000    0.0000000000         -2.1006
O52        O    0.9770256905    0.4164504662   -0.0229743095         -1.0069
O53        O    1.0835495338    0.4770256905    0.0229743095         -1.0051
O54        O    1.0229743095    0.5229743095   -0.0835495338         -1.0003
O55        O    1.0229743095    0.4164504662    0.0229743095          -1.007
O56        O    0.9770256905    0.4770256905   -0.0835495338          -1.003
O57        O    1.0835495338    0.5229743095   -0.0229743095         -1.0089
O58        O    0.9770256905    0.5835495338    0.0229743095         -1.0028
O59        O    1.0229743095    0.4770256905    0.0835495338         -1.0103
O60        O    1.0229743095    0.5835495338   -0.0229743095         -1.0042
O61        O    0.9770256905    0.5229743095    0.0835495338         -1.0089
O62        O    0.9164504662    0.5229743095    0.0229743095          -1.008
O63        O    0.9164504662    0.4770256905   -0.0229743095         -1.0059
C64        C    1.0000000000    0.4001063640    0.0000000000           0.512
C65        C    1.0998936360    0.5000000000    0.0000000000          0.5169
C66        C    1.0000000000    0.5000000000   -0.0998936360          0.5065
C67        C    1.0000000000    0.5998936360    0.0000000000          0.5103
C68        C    1.0000000000    0.5000000000    0.0998936360          0.5216
C69        C    0.9001063640    0.5000000000    0.0000000000          0.5121
Zn70      Zn    0.9687393255    0.4687393255    0.5312606745          1.4972
Zn71      Zn    1.0312606745    0.4687393255    0.4687393255          1.4936
Zn72      Zn    0.9687393255    0.5312606745    0.4687393255          1.4911
Zn73      Zn    1.0312606745    0.5312606745    0.5312606745          1.4948
O74        O    1.0000000000    0.5000000000    0.5000000000         -2.1006
O75        O    0.9770256905    0.4164504662    0.5229743095         -1.0069
O76        O    1.0229743095    0.4770256905    0.4164504662         -1.0051
O77        O    0.9164504662    0.5229743095    0.4770256905         -1.0003
O78        O    1.0229743095    0.4164504662    0.4770256905          -1.007
O79        O    0.9164504662    0.4770256905    0.5229743095          -1.003
O80        O    0.9770256905    0.5229743095    0.4164504662         -1.0089
O81        O    1.0229743095    0.5835495338    0.5229743095         -1.0028
O82        O    1.0835495338    0.4770256905    0.4770256905         -1.0103
O83        O    0.9770256905    0.5835495338    0.4770256905         -1.0042
O84        O    1.0835495338    0.5229743095    0.5229743095         -1.0089
O85        O    1.0229743095    0.5229743095    0.5835495338          -1.008
O86        O    0.9770256905    0.4770256905    0.5835495338         -1.0059
C87        C    1.0000000000    0.4001063640    0.5000000000           0.512
C88        C    1.0000000000    0.5000000000    0.4001063640          0.5169
C89        C    0.9001063640    0.5000000000    0.5000000000          0.5065
C90        C    1.0000000000    0.5998936360    0.5000000000          0.5103
C91        C    1.0998936360    0.5000000000    0.5000000000          0.5216
C92        C    1.0000000000    0.5000000000    0.5998936360          0.5121
Zn93      Zn    0.4687393255    0.9687393255   -0.0312606745          1.4972
Zn94      Zn    0.4687393255    1.0312606745    0.0312606745          1.4936
Zn95      Zn    0.5312606745    0.9687393255    0.0312606745          1.4911
Zn96      Zn    0.5312606745    1.0312606745   -0.0312606745          1.4948
O97        O    0.5000000000    1.0000000000    0.0000000000         -2.1006
O98        O    0.4164504662    0.9770256905   -0.0229743095         -1.0069
O99        O    0.4770256905    1.0229743095    0.0835495338         -1.0051
O100       O    0.5229743095    0.9164504662    0.0229743095         -1.0003
O101       O    0.4164504662    1.0229743095    0.0229743095          -1.007
O102       O    0.4770256905    0.9164504662   -0.0229743095          -1.003
O103       O    0.5229743095    0.9770256905    0.0835495338         -1.0089
O104       O    0.5835495338    1.0229743095   -0.0229743095         -1.0028
O105       O    0.4770256905    1.0835495338    0.0229743095         -1.0103
O106       O    0.5835495338    0.9770256905    0.0229743095         -1.0042
O107       O    0.5229743095    1.0835495338   -0.0229743095         -1.0089
O108       O    0.5229743095    1.0229743095   -0.0835495338          -1.008
O109       O    0.4770256905    0.9770256905   -0.0835495338         -1.0059
C110       C    0.4001063640    1.0000000000    0.0000000000           0.512
C111       C    0.5000000000    1.0000000000    0.0998936360          0.5169
C112       C    0.5000000000    0.9001063640    0.0000000000          0.5065
C113       C    0.5998936360    1.0000000000    0.0000000000          0.5103
C114       C    0.5000000000    1.0998936360    0.0000000000          0.5216
C115       C    0.5000000000    1.0000000000   -0.0998936360          0.5121
Zn116     Zn    0.4687393255    1.0312606745    0.5312606745          1.4972
Zn117     Zn    0.4687393255    0.9687393255    0.4687393255          1.4936
Zn118     Zn    0.5312606745    1.0312606745    0.4687393255          1.4911
Zn119     Zn    0.5312606745    0.9687393255    0.5312606745          1.4948
O120       O    0.5000000000    1.0000000000    0.5000000000         -2.1006
O121       O    0.4164504662    1.0229743095    0.5229743095         -1.0069
O122       O    0.4770256905    0.9770256905    0.4164504662         -1.0051
O123       O    0.5229743095    1.0835495338    0.4770256905         -1.0003
O124       O    0.4164504662    0.9770256905    0.4770256905          -1.007
O125       O    0.4770256905    1.0835495338    0.5229743095          -1.003
O126       O    0.5229743095    1.0229743095    0.4164504662         -1.0089
O127       O    0.5835495338    0.9770256905    0.5229743095         -1.0028
O128       O    0.4770256905    0.9164504662    0.4770256905         -1.0103
O129       O    0.5835495338    1.0229743095    0.4770256905         -1.0042
O130       O    0.5229743095    0.9164504662    0.5229743095         -1.0089
O131       O    0.5229743095    0.9770256905    0.5835495338          -1.008
O132       O    0.4770256905    1.0229743095    0.5835495338         -1.0059
C133       C    0.4001063640    1.0000000000    0.5000000000           0.512
C134       C    0.5000000000    1.0000000000    0.4001063640          0.5169
C135       C    0.5000000000    1.0998936360    0.5000000000          0.5065
C136       C    0.5998936360    1.0000000000    0.5000000000          0.5103
C137       C    0.5000000000    0.9001063640    0.5000000000          0.5216
C138       C    0.5000000000    1.0000000000    0.5998936360          0.5121
Zn139     Zn    0.4687393255    0.5312606745   -0.0312606745          1.4972
Zn140     Zn    0.4687393255    0.4687393255    0.0312606745          1.4936
Zn141     Zn    0.5312606745    0.4687393255   -0.0312606745          1.4911
Zn142     Zn    0.5312606745    0.5312606745    0.0312606745          1.4948
O143       O    0.5000000000    0.5000000000    0.0000000000         -2.1006
O144       O    0.4164504662    0.5229743095   -0.0229743095         -1.0069
O145       O    0.4770256905    0.4164504662    0.0229743095         -1.0051
O146       O    0.5229743095    0.4770256905   -0.0835495338         -1.0003
O147       O    0.4164504662    0.4770256905    0.0229743095          -1.007
O148       O    0.4770256905    0.5229743095   -0.0835495338          -1.003
O149       O    0.5229743095    0.4164504662   -0.0229743095         -1.0089
O150       O    0.5835495338    0.5229743095    0.0229743095         -1.0028
O151       O    0.4770256905    0.4770256905    0.0835495338         -1.0103
O152       O    0.5835495338    0.4770256905   -0.0229743095         -1.0042
O153       O    0.5229743095    0.5229743095    0.0835495338         -1.0089
O154       O    0.5229743095    0.5835495338    0.0229743095          -1.008
O155       O    0.4770256905    0.5835495338   -0.0229743095         -1.0059
C156       C    0.4001063640    0.5000000000    0.0000000000           0.512
C157       C    0.5000000000    0.4001063640    0.0000000000          0.5169
C158       C    0.5000000000    0.5000000000   -0.0998936360          0.5065
C159       C    0.5998936360    0.5000000000    0.0000000000          0.5103
C160       C    0.5000000000    0.5000000000    0.0998936360          0.5216
C161       C    0.5000000000    0.5998936360    0.0000000000          0.5121
Zn162     Zn    0.4687393255    0.5312606745    0.4687393255          1.4972
Zn163     Zn    0.4687393255    0.4687393255    0.5312606745          1.4936
Zn164     Zn    0.5312606745    0.4687393255    0.4687393255          1.4911
Zn165     Zn    0.5312606745    0.5312606745    0.5312606745          1.4948
O166       O    0.5000000000    0.5000000000    0.5000000000         -2.1006
O167       O    0.4164504662    0.5229743095    0.4770256905         -1.0069
O168       O    0.4770256905    0.4164504662    0.5229743095         -1.0051
O169       O    0.5229743095    0.4770256905    0.4164504662         -1.0003
O170       O    0.4164504662    0.4770256905    0.5229743095          -1.007
O171       O    0.4770256905    0.5229743095    0.4164504662          -1.003
O172       O    0.5229743095    0.4164504662    0.4770256905         -1.0089
O173       O    0.5835495338    0.5229743095    0.5229743095         -1.0028
O174       O    0.4770256905    0.4770256905    0.5835495338         -1.0103
O175       O    0.5835495338    0.4770256905    0.4770256905         -1.0042
O176       O    0.5229743095    0.5229743095    0.5835495338         -1.0089
O177       O    0.5229743095    0.5835495338    0.5229743095          -1.008
O178       O    0.4770256905    0.5835495338    0.4770256905         -1.0059
C179       C    0.4001063640    0.5000000000    0.5000000000           0.512
C180       C    0.5000000000    0.4001063640    0.5000000000          0.5169
C181       C    0.5000000000    0.5000000000    0.4001063640          0.5065
C182       C    0.5998936360    0.5000000000    0.5000000000          0.5103
C183       C    0.5000000000    0.5000000000    0.5998936360          0.5216
C184       C    0.5000000000    0.5998936360    0.5000000000          0.5121
C737       C    0.5000000000    0.5000000000   -0.1428310591         -0.2591
C738       C    0.5287179059    0.4913481528   -0.1653802206         -0.2508
C739       C    0.5249545943    0.4892259959   -0.2022791842         -0.2474
C740       C    0.4923668043    0.4949044061   -0.2193203103         -0.2514
C741       C    0.4627253234    0.5026902350   -0.1971257665         -0.2589
C742       C    0.4666803321    0.5058863797   -0.1593592105          0.7367
N743       N    0.4908559446    0.4932697802   -0.2558436419         -0.2485
H744       H    0.5495492176    0.4825814662   -0.2188500105         -0.2411
H745       H    0.5564872888    0.4859762126   -0.1544180240         -0.2468
N746       N    0.4374360479    0.5161053042   -0.1379816044          0.7271
C747       C    0.4240779139    0.5057411139   -0.2156100128         -0.2605
C748       C    0.4181658822    0.5405398630   -0.2402062749          0.7099
H749       H    0.4406424932    0.5443000231   -0.2603705554          0.7071
H750       H    0.3922585930    0.5374294422   -0.2559680951          0.7135
H751       H    0.4161354611    0.5656901987   -0.2232362939           0.687
H752       H    0.4013816194    0.5046049810   -0.1954060669           -0.26
H753       H    0.4199447676    0.4810142565   -0.2329553134         -0.2379
H754       H    0.4425605265    0.5290097115   -0.1131981672          0.7147
H755       H    0.4159154860    0.5301649343   -0.1500463023          0.7154
N756       N    0.5073915928    0.4882463467   -0.2875425170         -0.2429
C757       C    0.4876413288    0.4976415234   -0.3213578581         -0.2497
C758       C    0.5000000000    0.5000000000   -0.3571689409         -0.2504
H759       H    0.5295040129    0.4938345683   -0.3610520549         -0.2451
H760       H    0.4577432661    0.5044745978   -0.3203941386         -0.2554
C713       C    0.5000000000    0.5000000000    0.1428310591         -0.2591
C714       C    0.5074910161    0.4709576644    0.1653802206         -0.2508
C715       C    0.5097626639    0.4746326719    0.2022791842         -0.2474
C716       C    0.5053981703    0.5074222982    0.2193203103         -0.2514
C717       C    0.4988095811    0.5373526677    0.1971257665         -0.2589
C718       C    0.4954571106    0.5335292691    0.1593592105          0.7367
N719       N    0.5070921805    0.5088662610    0.2558436419         -0.2485
H720       H    0.5154136511    0.4497909406    0.2188500105         -0.2411
H721       H    0.5117428840    0.4429948679    0.1544180240         -0.2468
N722       N    0.4864214317    0.5631605210    0.1379816044          0.7271
C723       C    0.4973139641    0.5760914499    0.2156100128         -0.2605
C724       C    0.4627808515    0.5833968723    0.2402062749          0.7099
H725       H    0.4581206492    0.5610894888    0.2603705554          0.7071
H726       H    0.4669296789    0.6091582694    0.2559680951          0.7135
H727       H    0.4377324037    0.5864361588    0.2232362939           0.687
H728       H    0.4993610845    0.5987237693    0.1954060669           -0.26
H729       H    0.5221869188    0.5792277686    0.2329553134         -0.2379
H730       H    0.4733215502    0.5585586611    0.1131981672          0.7147
H731       H    0.4732378203    0.5852286014    0.1500463023          0.7154
N732       N    0.5114471787    0.4921421307    0.2875425170         -0.2429
C733       C    0.5028531261    0.5122539315    0.3213578581         -0.2497
C734       C    0.5000000000    0.5000000000    0.3571689409         -0.2504
H735       H    0.5049750237    0.4702720928    0.3610520549         -0.2451
H736       H    0.4972268311    0.5424023952    0.3203941386         -0.2554
C689       C    0.5000000000    0.8571689409    0.5000000000         -0.2591
C690       C    0.4934641785    0.8346197794    0.5292720962         -0.2508
C691       C    0.4910733879    0.7977208158    0.5256734598         -0.2474
C692       C    0.4943616353    0.7806796897    0.4927584810         -0.2514
C693       C    0.4999664296    0.8028742335    0.4626283830         -0.2589
C694       C    0.5034423231    0.8406407895    0.4663399325          0.7367
N695       N    0.4926212422    0.7441563581    0.4913707740         -0.2485
H696       H    0.4862390328    0.7811499895    0.5506869418         -0.2411
H697       H    0.4901304112    0.8455819760    0.5573591460         -0.2468
N698       N    0.5115026909    0.8620183956    0.4364286461          0.7271
C699       C    0.5001924966    0.7843899872    0.4238613995         -0.2605
C700       C    0.5344678207    0.7597937251    0.4154288899          0.7099
H701       H    0.5398561200    0.7396294446    0.4375716782          0.7071
H702       H    0.5294774982    0.7440319049    0.3898171927          0.7135
H703       H    0.5594032899    0.7767637061    0.4115708632           0.687
H704       H    0.4974052351    0.8045939331    0.4013082676           -0.26
H705       H    0.4752301667    0.7670446866    0.4215413864         -0.2379
H706       H    0.5247462619    0.8868018328    0.4405989983          0.7147
H707       H    0.5239564701    0.8499536977    0.4139406234          0.7154
N708       N    0.4888163183    0.7124574830    0.5082285645         -0.2429
C709       C    0.4967470716    0.6786421419    0.4878460861         -0.2497
C710       C    0.5000000000    0.6428310591    0.5000000000         -0.2504
H711       H    0.4960012746    0.6389479451    0.5298748978         -0.2451
H712       H    0.5013829451    0.6796058614    0.4575295273         -0.2554
C665       C    0.5000000000    1.1428310591    0.5000000000         -0.2591
C666       C    0.4712820941    1.1653802206    0.5086518472         -0.2508
C667       C    0.4750454057    1.2022791842    0.5107740041         -0.2474
C668       C    0.5076331957    1.2193203103    0.5050955939         -0.2514
C669       C    0.5372746766    1.1971257665    0.4973097650         -0.2589
C670       C    0.5333196679    1.1593592105    0.4941136203          0.7367
N671       N    0.5091440554    1.2558436419    0.5067302198         -0.2485
H672       H    0.4504507824    1.2188500105    0.5174185338         -0.2411
H673       H    0.4435127112    1.1544180240    0.5140237874         -0.2468
N674       N    0.5625639521    1.1379816044    0.4838946958          0.7271
C675       C    0.5759220861    1.2156100128    0.4942588861         -0.2605
C676       C    0.5818341178    1.2402062749    0.4594601370          0.7099
H677       H    0.5593575068    1.2603705554    0.4556999769          0.7071
H678       H    0.6077414070    1.2559680951    0.4625705578          0.7135
H679       H    0.5838645389    1.2232362939    0.4343098013           0.687
H680       H    0.5986183806    1.1954060669    0.4953950190           -0.26
H681       H    0.5800552324    1.2329553134    0.5189857435         -0.2379
H682       H    0.5574394735    1.1131981672    0.4709902885          0.7147
H683       H    0.5840845140    1.1500463023    0.4698350657          0.7154
N684       N    0.4926084072    1.2875425170    0.5117536533         -0.2429
C685       C    0.5123586712    1.3213578581    0.5023584766         -0.2497
C686       C    0.5000000000    1.3571689409    0.5000000000         -0.2504
H687       H    0.4704959871    1.3610520549    0.5061654317         -0.2451
H688       H    0.5422567339    1.3203941386    0.4955254022         -0.2554
C641       C    0.5000000000    0.8571689409    0.0000000000         -0.2591
C642       C    0.5284157236    0.8346197794   -0.0095978765         -0.2508
C643       C    0.5265794637    0.7977208158   -0.0056870948         -0.2474
C644       C    0.4967341262    0.7806796897    0.0085769938         -0.2514
C645       C    0.4680678720    0.8028742335    0.0194159235         -0.2589
C646       C    0.4694377455    0.8406407895    0.0145188956          0.7367
N647       N    0.4964506165    0.7441563581    0.0107847803         -0.2485
H648       H    0.5504717682    0.7811499895   -0.0145303443         -0.2411
H649       H    0.5541572082    0.8455819760   -0.0213184712         -0.2468
N650       N    0.4396846821    0.8620183956    0.0231450071          0.7271
C651       C    0.4348081330    0.7843899872    0.0393337517         -0.2605
C652       C    0.4098180930    0.7597937251    0.0144057963          0.7099
H653       H    0.4259530065    0.7396294446   -0.0016877244          0.7071
H654       H    0.3905111005    0.7440319049    0.0319586420          0.7135
H655       H    0.3935840693    0.7767637061   -0.0049104785           0.687
H656       H    0.4169730738    0.8045939331    0.0534164804           -0.26
H657       H    0.4457743942    0.7670446866    0.0618779635         -0.2379
H658       H    0.4363796277    0.8868018328    0.0096594360          0.7147
H659       H    0.4139987114    0.8499536977    0.0241641701          0.7154
N660       N    0.5128364640    0.7124574830    0.0052923721         -0.2429
C661       C    0.4912969581    0.6786421419    0.0090860458         -0.2497
C662       C    0.5000000000    0.6428310591    0.0000000000         -0.2504
H663       H    0.5276149016    0.6389479451   -0.0120795918         -0.2451
H664       H    0.4629739417    0.6796058614    0.0208500502         -0.2554
C617       C    0.5000000000    1.1428310591    0.0000000000         -0.2591
C618       C    0.5200947546    1.1653802206   -0.0222659700         -0.2508
C619       C    0.5157763438    1.2022791842   -0.0221340894         -0.2474
C620       C    0.4908314081    1.2193203103   -0.0004094818         -0.2514
C621       C    0.4694981855    1.1971257665    0.0215934757         -0.2589
C622       C    0.4745364665    1.1593592105    0.0222813418          0.7367
N623       N    0.4886926346    1.2558436419   -0.0010262047         -0.2485
H624       H    0.5333818941    1.2188500105   -0.0405484826         -0.2411
H625       H    0.5410754249    1.1544180240   -0.0412345714         -0.2468
N626       N    0.4548023586    1.1379816044    0.0461606125          0.7271
C627       C    0.4380084413    1.2156100128    0.0442059972         -0.2605
C628       C    0.4509599502    1.2402062749    0.0770413969          0.7099
H629       H    0.4721381835    1.2603705554    0.0686259779          0.7071
H630       H    0.4271825239    1.2559680951    0.0877883198          0.7135
H631       H    0.4622392144    1.2232362939    0.0996121788           0.687
H632       H    0.4180003049    1.1954060669    0.0549803678           -0.26
H633       H    0.4216744804    1.2329553134    0.0251875299         -0.2379
H634       H    0.4658658263    1.1131981672    0.0545501115          0.7147
H635       H    0.4436648326    1.1500463023    0.0693287652          0.7154
N636       N    0.5002415080    1.2875425170   -0.0138825676         -0.2429
C637       C    0.4882046453    1.3213578581    0.0043782157         -0.2497
C638       C    0.5000000000    1.3571689409    0.0000000000         -0.2504
H639       H    0.5220542370    1.3610520549   -0.0205453147         -0.2451
H640       H    0.4661587783    1.3203941386    0.0256987413         -0.2554
C593       C    0.5000000000    1.0000000000   -0.1428310591         -0.2591
C594       C    0.5287179059    0.9913481528   -0.1653802206         -0.2508
C595       C    0.5249545943    0.9892259959   -0.2022791842         -0.2474
C596       C    0.4923668043    0.9949044061   -0.2193203103         -0.2514
C597       C    0.4627253234    1.0026902350   -0.1971257665         -0.2589
C598       C    0.4666803321    1.0058863797   -0.1593592105          0.7367
N599       N    0.4908559446    0.9932697802   -0.2558436419         -0.2485
H600       H    0.5495492176    0.9825814662   -0.2188500105         -0.2411
H601       H    0.5564872888    0.9859762126   -0.1544180240         -0.2468
N602       N    0.4374360479    1.0161053042   -0.1379816044          0.7271
C603       C    0.4240779139    1.0057411139   -0.2156100128         -0.2605
C604       C    0.4181658822    1.0405398630   -0.2402062749          0.7099
H605       H    0.4406424932    1.0443000231   -0.2603705554          0.7071
H606       H    0.3922585930    1.0374294422   -0.2559680951          0.7135
H607       H    0.4161354611    1.0656901987   -0.2232362939           0.687
H608       H    0.4013816194    1.0046049810   -0.1954060669           -0.26
H609       H    0.4199447676    0.9810142565   -0.2329553134         -0.2379
H610       H    0.4425605265    1.0290097115   -0.1131981672          0.7147
H611       H    0.4159154860    1.0301649343   -0.1500463023          0.7154
N612       N    0.5073915928    0.9882463467   -0.2875425170         -0.2429
C613       C    0.4876413288    0.9976415234   -0.3213578581         -0.2497
C614       C    0.5000000000    1.0000000000   -0.3571689409         -0.2504
H615       H    0.5295040129    0.9938345683   -0.3610520549         -0.2451
H616       H    0.4577432661    1.0044745978   -0.3203941386         -0.2554
C569       C    0.5000000000    1.0000000000    0.1428310591         -0.2591
C570       C    0.5287179059    1.0086518472    0.1653802206         -0.2508
C571       C    0.5249545943    1.0107740041    0.2022791842         -0.2474
C572       C    0.4923668043    1.0050955939    0.2193203103         -0.2514
C573       C    0.4627253234    0.9973097650    0.1971257665         -0.2589
C574       C    0.4666803321    0.9941136203    0.1593592105          0.7367
N575       N    0.4908559446    1.0067302198    0.2558436419         -0.2485
H576       H    0.5495492176    1.0174185338    0.2188500105         -0.2411
H577       H    0.5564872888    1.0140237874    0.1544180240         -0.2468
N578       N    0.4374360479    0.9838946958    0.1379816044          0.7271
C579       C    0.4240779139    0.9942588861    0.2156100128         -0.2605
C580       C    0.4181658822    0.9594601370    0.2402062749          0.7099
H581       H    0.4406424932    0.9556999769    0.2603705554          0.7071
H582       H    0.3922585930    0.9625705578    0.2559680951          0.7135
H583       H    0.4161354611    0.9343098013    0.2232362939           0.687
H584       H    0.4013816194    0.9953950190    0.1954060669           -0.26
H585       H    0.4199447676    1.0189857435    0.2329553134         -0.2379
H586       H    0.4425605265    0.9709902885    0.1131981672          0.7147
H587       H    0.4159154860    0.9698350657    0.1500463023          0.7154
N588       N    0.5073915928    1.0117536533    0.2875425170         -0.2429
C589       C    0.4876413288    1.0023584766    0.3213578581         -0.2497
C590       C    0.5000000000    1.0000000000    0.3571689409         -0.2504
H591       H    0.5295040129    1.0061654317    0.3610520549         -0.2451
H592       H    0.4577432661    0.9955254022    0.3203941386         -0.2554
C545       C    0.6428310591    0.5000000000    0.5000000000         -0.2591
C546       C    0.6653802206    0.5257267950    0.4845823283         -0.2508
C547       C    0.7022791842    0.5247636224    0.4887940218         -0.2474
C548       C    0.7193203103    0.4986315589    0.5090751376         -0.2514
C549       C    0.6971257665    0.4729237115    0.5257587555         -0.2589
C550       C    0.6593592105    0.4732215500    0.5206824647          0.7367
N551       N    0.7558436419    0.4988237358    0.5112927415         -0.2485
H552       H    0.7188500105    0.5462307101    0.4750750780         -0.2411
H553       H    0.6544180240    0.5483893116    0.4676587734         -0.2468
N554       N    0.6379816044    0.4459814415    0.5354347889          0.7271
C555       C    0.7156100128    0.4446568077    0.5522901004         -0.2605
C556       C    0.7402062749    0.4149398350    0.5332426179          0.7099
H557       H    0.7603705554    0.4272858803    0.5140876706          0.7071
H558       H    0.7559680951    0.3998043179    0.5544976990          0.7135
H559       H    0.7232362939    0.3949714755    0.5178177478           0.687
H560       H    0.6954060669    0.4302221118    0.5698415146           -0.26
H561       H    0.7329553134    0.4601637609    0.5719886987         -0.2379
H562       H    0.6131981672    0.4398858675    0.5229596941          0.7147
H563       H    0.6500463023    0.4210988485    0.5418895816          0.7154
N564       N    0.7875425170    0.5136679845    0.5024434012         -0.2429
C565       C    0.8213578581    0.4934267859    0.5107280950         -0.2497
C566       C    0.8571689409    0.5000000000    0.5000000000         -0.2504
H567       H    0.8610520549    0.5244168406    0.4823275011         -0.2451
H568       H    0.8203941386    0.4682509367    0.5282427082         -0.2554
C521       C    1.1428310591    0.5000000000    0.5000000000         -0.2591
C522       C    1.1653802206    0.5257267950    0.4845823283         -0.2508
C523       C    1.2022791842    0.5247636224    0.4887940218         -0.2474
C524       C    1.2193203103    0.4986315589    0.5090751376         -0.2514
C525       C    1.1971257665    0.4729237115    0.5257587555         -0.2589
C526       C    1.1593592105    0.4732215500    0.5206824647          0.7367
N527       N    1.2558436419    0.4988237358    0.5112927415         -0.2485
H528       H    1.2188500105    0.5462307101    0.4750750780         -0.2411
H529       H    1.1544180240    0.5483893116    0.4676587734         -0.2468
N530       N    1.1379816044    0.4459814415    0.5354347889          0.7271
C531       C    1.2156100128    0.4446568077    0.5522901004         -0.2605
C532       C    1.2402062749    0.4149398350    0.5332426179          0.7099
H533       H    1.2603705554    0.4272858803    0.5140876706          0.7071
H534       H    1.2559680951    0.3998043179    0.5544976990          0.7135
H535       H    1.2232362939    0.3949714755    0.5178177478           0.687
H536       H    1.1954060669    0.4302221118    0.5698415146           -0.26
H537       H    1.2329553134    0.4601637609    0.5719886987         -0.2379
H538       H    1.1131981672    0.4398858675    0.5229596941          0.7147
H539       H    1.1500463023    0.4210988485    0.5418895816          0.7154
N540       N    1.2875425170    0.5136679845    0.5024434012         -0.2429
C541       C    1.3213578581    0.4934267859    0.5107280950         -0.2497
C542       C    1.3571689409    0.5000000000    0.5000000000         -0.2504
H543       H    1.3610520549    0.5244168406    0.4823275011         -0.2451
H544       H    1.3203941386    0.4682509367    0.5282427082         -0.2554
C497       C    0.8571689409    0.5000000000    0.0000000000         -0.2591
C498       C    0.8346197794    0.5186307127    0.0235046618         -0.2508
C499       C    0.7977208158    0.5192158073    0.0192240394         -0.2474
C500       C    0.7806796897    0.5019222003   -0.0089741796         -0.2514
C501       C    0.8028742335    0.4837559660   -0.0336566523         -0.2589
C502       C    0.8406407895    0.4822432291   -0.0288018544          0.7367
N503       N    0.7441563581    0.5028846009   -0.0109812880         -0.2485
H504       H    0.7811499895    0.5344603524    0.0396360240         -0.2411
H505       H    0.8455819760    0.5338628740    0.0473369431         -0.2468
N506       N    0.8620183956    0.4619617668   -0.0522180213          0.7271
C507       C    0.7843899872    0.4666705641   -0.0684563528         -0.2605
C508       C    0.7597937251    0.4321437091   -0.0611214129          0.7099
H509       H    0.7396294446    0.4369356886   -0.0388419655          0.7071
H510       H    0.7440319049    0.4254828607   -0.0863502743          0.7135
H511       H    0.7767637061    0.4080166718   -0.0537357464           0.687
H512       H    0.8045939331    0.4593584305   -0.0899725162           -0.26
H513       H    0.7670446866    0.4881314244   -0.0814152050         -0.2379
H514       H    0.8868018328    0.4518559348   -0.0426966680          0.7147
H515       H    0.8499536977    0.4409579592   -0.0670385425          0.7154
N516       N    0.7124574830    0.5136508823    0.0025372079         -0.2429
C517       C    0.6786421419    0.4976356185   -0.0123575429         -0.2497
C518       C    0.6428310591    0.5000000000    0.0000000000         -0.2504
H519       H    0.6389479451    0.5166093144    0.0251521371         -0.2451
H520       H    0.6796058614    0.4802604112   -0.0376298050         -0.2554
C473       C    1.1428310591    0.5000000000    0.0000000000         -0.2591
C474       C    1.1653802206    0.5299715636    0.0011304677         -0.2508
C475       C    1.2022791842    0.5268650137    0.0041330352         -0.2474
C476       C    1.2193203103    0.4938984387    0.0068557789         -0.2514
C477       C    1.1971257665    0.4632515306    0.0067962399         -0.2589
C478       C    1.1593592105    0.4662727556    0.0027060523          0.7367
N479       N    1.2558436419    0.4928486080    0.0088185714         -0.2485
H480       H    1.2188500105    0.5523403623    0.0043608216         -0.2411
H481       H    1.1544180240    0.5581981651   -0.0006737867         -0.2468
N482       N    1.1379816044    0.4353966556    0.0001918870          0.7271
C483       C    1.2156100128    0.4250837474    0.0135896521         -0.2605
C484       C    1.2402062749    0.4105875928   -0.0185936753          0.7099
H485       H    1.2603705554    0.4313896317   -0.0279002333          0.7071
H486       H    1.2559680951    0.3863019002   -0.0090507468          0.7135
H487       H    1.2232362939    0.4022806422   -0.0424192198           0.687
H488       H    1.1954060669    0.4034074250    0.0204123808           -0.26
H489       H    1.2329553134    0.4273195297    0.0385596671         -0.2379
H490       H    1.1131981672    0.4371014296   -0.0135877268          0.7147
H491       H    1.1500463023    0.4110261625   -0.0079865510          0.7154
N492       N    1.2875425170    0.5101166317    0.0095098777         -0.2429
C493       C    1.3213578581    0.4886354586    0.0053987373         -0.2497
C494       C    1.3571689409    0.5000000000    0.0000000000         -0.2504
H495       H    1.3610520549    0.5301052680   -0.0014738267         -0.2451
H496       H    1.3203941386    0.4579805162    0.0063258648         -0.2554
C449       C    1.0000000000    0.5000000000   -0.1428310591         -0.2591
C450       C    1.0287179059    0.4913481528   -0.1653802206         -0.2508
C451       C    1.0249545943    0.4892259959   -0.2022791842         -0.2474
C452       C    0.9923668043    0.4949044061   -0.2193203103         -0.2514
C453       C    0.9627253234    0.5026902350   -0.1971257665         -0.2589
C454       C    0.9666803321    0.5058863797   -0.1593592105          0.7367
N455       N    0.9908559446    0.4932697802   -0.2558436419         -0.2485
H456       H    1.0495492176    0.4825814662   -0.2188500105         -0.2411
H457       H    1.0564872888    0.4859762126   -0.1544180240         -0.2468
N458       N    0.9374360479    0.5161053042   -0.1379816044          0.7271
C459       C    0.9240779139    0.5057411139   -0.2156100128         -0.2605
C460       C    0.9181658822    0.5405398630   -0.2402062749          0.7099
H461       H    0.9406424932    0.5443000231   -0.2603705554          0.7071
H462       H    0.8922585930    0.5374294422   -0.2559680951          0.7135
H463       H    0.9161354611    0.5656901987   -0.2232362939           0.687
H464       H    0.9013816194    0.5046049810   -0.1954060669           -0.26
H465       H    0.9199447676    0.4810142565   -0.2329553134         -0.2379
H466       H    0.9425605265    0.5290097115   -0.1131981672          0.7147
H467       H    0.9159154860    0.5301649343   -0.1500463023          0.7154
N468       N    1.0073915928    0.4882463467   -0.2875425170         -0.2429
C469       C    0.9876413288    0.4976415234   -0.3213578581         -0.2497
C470       C    1.0000000000    0.5000000000   -0.3571689409         -0.2504
H471       H    1.0295040129    0.4938345683   -0.3610520549         -0.2451
H472       H    0.9577432661    0.5044745978   -0.3203941386         -0.2554
C425       C    1.0000000000    0.5000000000    0.3571689409         -0.2591
C426       C    0.9913481528    0.4712820941    0.3346197794         -0.2508
C427       C    0.9892259959    0.4750454057    0.2977208158         -0.2474
C428       C    0.9949044061    0.5076331957    0.2806796897         -0.2514
C429       C    1.0026902350    0.5372746766    0.3028742335         -0.2589
C430       C    1.0058863797    0.5333196679    0.3406407895          0.7367
N431       N    0.9932697802    0.5091440554    0.2441563581         -0.2485
H432       H    0.9825814662    0.4504507824    0.2811499895         -0.2411
H433       H    0.9859762126    0.4435127112    0.3455819760         -0.2468
N434       N    1.0161053042    0.5625639521    0.3620183956          0.7271
C435       C    1.0057411139    0.5759220861    0.2843899872         -0.2605
C436       C    1.0405398630    0.5818341178    0.2597937251          0.7099
H437       H    1.0443000231    0.5593575068    0.2396294446          0.7071
H438       H    1.0374294422    0.6077414070    0.2440319049          0.7135
H439       H    1.0656901987    0.5838645389    0.2767637061           0.687
H440       H    1.0046049810    0.5986183806    0.3045939331           -0.26
H441       H    0.9810142565    0.5800552324    0.2670446866         -0.2379
H442       H    1.0290097115    0.5574394735    0.3868018328          0.7147
H443       H    1.0301649343    0.5840845140    0.3499536977          0.7154
N444       N    0.9882463467    0.4926084072    0.2124574830         -0.2429
C445       C    0.9976415234    0.5123586712    0.1786421419         -0.2497
C446       C    1.0000000000    0.5000000000    0.1428310591         -0.2504
H447       H    0.9938345683    0.4704959871    0.1389479451         -0.2451
H448       H    1.0044745978    0.5422567339    0.1796058614         -0.2554
C401       C    1.0000000000   -0.3571689409    0.5000000000         -0.2591
C402       C    0.9712820941   -0.3346197794    0.5086518472         -0.2508
C403       C    0.9750454057   -0.2977208158    0.5107740041         -0.2474
C404       C    1.0076331957   -0.2806796897    0.5050955939         -0.2514
C405       C    1.0372746766   -0.3028742335    0.4973097650         -0.2589
C406       C    1.0333196679   -0.3406407895    0.4941136203          0.7367
N407       N    1.0091440554   -0.2441563581    0.5067302198         -0.2485
H408       H    0.9504507824   -0.2811499895    0.5174185338         -0.2411
H409       H    0.9435127112   -0.3455819760    0.5140237874         -0.2468
N410       N    1.0625639521   -0.3620183956    0.4838946958          0.7271
C411       C    1.0759220861   -0.2843899872    0.4942588861         -0.2605
C412       C    1.0818341178   -0.2597937251    0.4594601370          0.7099
H413       H    1.0593575068   -0.2396294446    0.4556999769          0.7071
H414       H    1.1077414070   -0.2440319049    0.4625705578          0.7135
H415       H    1.0838645389   -0.2767637061    0.4343098013           0.687
H416       H    1.0986183806   -0.3045939331    0.4953950190           -0.26
H417       H    1.0800552324   -0.2670446866    0.5189857435         -0.2379
H418       H    1.0574394735   -0.3868018328    0.4709902885          0.7147
H419       H    1.0840845140   -0.3499536977    0.4698350657          0.7154
N420       N    0.9926084072   -0.2124574830    0.5117536533         -0.2429
C421       C    1.0123586712   -0.1786421419    0.5023584766         -0.2497
C422       C    1.0000000000   -0.1428310591    0.5000000000         -0.2504
H423       H    0.9704959871   -0.1389479451    0.5061654317         -0.2451
H424       H    1.0422567339   -0.1796058614    0.4955254022         -0.2554
C377       C    1.0000000000    0.1428310591    0.5000000000         -0.2591
C378       C    0.9712820941    0.1653802206    0.5086518472         -0.2508
C379       C    0.9750454057    0.2022791842    0.5107740041         -0.2474
C380       C    1.0076331957    0.2193203103    0.5050955939         -0.2514
C381       C    1.0372746766    0.1971257665    0.4973097650         -0.2589
C382       C    1.0333196679    0.1593592105    0.4941136203          0.7367
N383       N    1.0091440554    0.2558436419    0.5067302198         -0.2485
H384       H    0.9504507824    0.2188500105    0.5174185338         -0.2411
H385       H    0.9435127112    0.1544180240    0.5140237874         -0.2468
N386       N    1.0625639521    0.1379816044    0.4838946958          0.7271
C387       C    1.0759220861    0.2156100128    0.4942588861         -0.2605
C388       C    1.0818341178    0.2402062749    0.4594601370          0.7099
H389       H    1.0593575068    0.2603705554    0.4556999769          0.7071
H390       H    1.1077414070    0.2559680951    0.4625705578          0.7135
H391       H    1.0838645389    0.2232362939    0.4343098013           0.687
H392       H    1.0986183806    0.1954060669    0.4953950190           -0.26
H393       H    1.0800552324    0.2329553134    0.5189857435         -0.2379
H394       H    1.0574394735    0.1131981672    0.4709902885          0.7147
H395       H    1.0840845140    0.1500463023    0.4698350657          0.7154
N396       N    0.9926084072    0.2875425170    0.5117536533         -0.2429
C397       C    1.0123586712    0.3213578581    0.5023584766         -0.2497
C398       C    1.0000000000    0.3571689409    0.5000000000         -0.2504
H399       H    0.9704959871    0.3610520549    0.5061654317         -0.2451
H400       H    1.0422567339    0.3203941386    0.4955254022         -0.2554
C353       C    0.6428310591   -0.0000000000    0.5000000000         -0.2591
C354       C    0.6653802206    0.0298337083    0.5030858434         -0.2508
C355       C    0.7022791842    0.0265376607    0.5058790735         -0.2474
C356       C    0.7193203103   -0.0065363603    0.5064425730         -0.2514
C357       C    0.6971257665   -0.0371139256    0.5043812565         -0.2589
C358       C    0.6593592105   -0.0338319755    0.5004971557          0.7367
N359       N    0.7558436419   -0.0077121616    0.5083325969         -0.2485
H360       H    0.7188500105    0.0519437213    0.5077704636         -0.2411
H361       H    0.6544180240    0.0581178821    0.5031292489         -0.2468
N362       N    0.6379816044   -0.0644779031    0.4959714841          0.7271
C363       C    0.7156100128   -0.0756439489    0.5086669795         -0.2605
C364       C    0.7402062749   -0.0880068775    0.4756054754          0.7099
H365       H    0.7603705554   -0.0666413472    0.4676776160          0.7071
H366       H    0.7559680951   -0.1128640616    0.4835416428          0.7135
H367       H    0.7232362939   -0.0947397643    0.4512881928           0.687
H368       H    0.6954060669   -0.0977196480    0.5140592049           -0.26
H369       H    0.7329553134   -0.0750440227    0.5337297101         -0.2379
H370       H    0.6131981672   -0.0618766638    0.4823326585          0.7147
H371       H    0.6500463023   -0.0882621187    0.4862185937          0.7154
N372       N    0.7875425170    0.0094738249    0.5101504016         -0.2429
C373       C    0.8213578581   -0.0116929239    0.5046448571         -0.2497
C374       C    0.8571689409   -0.0000000000    0.5000000000         -0.2504
H375       H    0.8610520549    0.0301372438    0.5004958449         -0.2451
H376       H    0.8203941386   -0.0423429569    0.5035675750         -0.2554
C329       C    1.1428310591   -0.0000000000    0.5000000000         -0.2591
C330       C    1.1653802206    0.0189855236    0.4767809890         -0.2508
C331       C    1.2022791842    0.0195055420    0.4810700034         -0.2474
C332       C    1.2193203103    0.0017856900    0.5090023366         -0.2514
C333       C    1.1971257665   -0.0167532959    0.5334060767         -0.2589
C334       C    1.1593592105   -0.0181921298    0.5285288651          0.7367
N335       N    1.2558436419    0.0027174981    0.5110238293         -0.2485
H336       H    1.2188500105    0.0350583208    0.4608918879         -0.2411
H337       H    1.1544180240    0.0345778632    0.4531827832         -0.2468
N338       N    1.1379816044   -0.0388268686    0.5516343220          0.7271
C339       C    1.2156100128   -0.0343652219    0.5679422921         -0.2605
C340       C    1.2402062749   -0.0687767011    0.5600838473          0.7099
H341       H    1.2603705554   -0.0636469219    0.5378797439          0.7071
H342       H    1.2559680951   -0.0758199259    0.5852086425          0.7135
H343       H    1.2232362939   -0.0927887917    0.5523326212           0.687
H344       H    1.1954060669   -0.0420032729    0.5893449266           -0.26
H345       H    1.2329553134   -0.0131036395    0.5812255706         -0.2379
H346       H    1.1131981672   -0.0487869368    0.5419605920          0.7147
H347       H    1.1500463023   -0.0600533295    0.5661341544          0.7154
N348       N    1.2875425170    0.0136878399    0.4976703973         -0.2429
C349       C    1.3213578581   -0.0025517798    0.5123202105         -0.2497
C350       C    1.3571689409   -0.0000000000    0.5000000000         -0.2504
H351       H    1.3610520549    0.0169893782    0.4751030051         -0.2451
H352       H    1.3203941386   -0.0203087869    0.5373256850         -0.2554
C305       C   -0.0000000000   -0.1428310591   -0.0000000000         -0.2591
C306       C    0.0022500023   -0.1653802206   -0.0299083612         -0.2508
C307       C    0.0051343499   -0.2022791842   -0.0266917476          -0.253
C308       C    0.0066229138   -0.2193203103    0.0063535633         -0.2514
C309       C    0.0054178476   -0.1971257665    0.0369768280         -0.2589
C310       C    0.0014434507   -0.1593592105    0.0338048248          0.7367
N311       N    0.0085450923   -0.2558436419    0.0074760287         -0.2485
H312       H    0.0063142352   -0.2188500105   -0.0521407779         -0.2411
H313       H    0.0015021076   -0.1544180240   -0.0581826786         -0.2468
N314       N   -0.0022230935   -0.1379816044    0.0645653683          0.7271
C315       C    0.0107798161   -0.2156100128    0.0753718721         -0.2605
C316       C   -0.0219228798   -0.2402062749    0.0886548964          0.7099
H317       H   -0.0304453622   -0.2603705554    0.0675195200          0.7071
H318       H   -0.0132944097   -0.2559680951    0.1132803275          0.7135
H319       H   -0.0460422840   -0.2232362939    0.0960654526           0.687
H320       H    0.0167875247   -0.1954060669    0.0972880766           -0.26
H321       H    0.0358159532   -0.2329553134    0.0740710212         -0.2379
H322       H   -0.0159293535   -0.1131981672    0.0623467094          0.7147
H323       H   -0.0113067749   -0.1500463023    0.0886131232          0.7154
N324       N    0.0098813872   -0.2875425170   -0.0097540862         -0.2429
C325       C    0.0049701624   -0.3213578581    0.0115584018         -0.2497
C326       C    0.0000000000   -0.3571689409    0.0000000000         -0.2504
H327       H   -0.0003474742   -0.3610520549   -0.0301393196         -0.2451
H328       H    0.0047507729   -0.3203941386    0.0422265763         -0.2554
C281       C   -0.0000000000    0.3571689409    0.0000000000         -0.2591
C282       C   -0.0147842343    0.3346197794    0.0260959574         -0.2508
C283       C   -0.0160222808    0.2977208158    0.0219567178         -0.2474
C284       C   -0.0032827756    0.2806796897   -0.0085705389         -0.2514
C285       C    0.0108609494    0.3028742335   -0.0357586166         -0.2589
C286       C    0.0131040687    0.3406407895   -0.0311950816          0.7367
N287       N   -0.0045431075    0.2441563581   -0.0104052767         -0.2485
H288       H   -0.0279376326    0.2811499895    0.0444749252         -0.2411
H289       H   -0.0261600403    0.3455819760    0.0519916600         -0.2468
N290       N    0.0295329599    0.3620183956   -0.0574580996          0.7271
C291       C    0.0223769828    0.2843899872   -0.0727763298         -0.2605
C292       C    0.0576218757    0.2597937251   -0.0708521190          0.7099
H293       H    0.0563220292    0.2396294446   -0.0481002566          0.7071
H294       H    0.0603135337    0.2440319049   -0.0968062579          0.7135
H295       H    0.0825991095    0.2767637061   -0.0672744395           0.687
H296       H    0.0262845292    0.3045939331   -0.0951625681           -0.26
H297       H   -0.0008251729    0.2670446866   -0.0822716098         -0.2379
H298       H    0.0409858837    0.3868018328   -0.0496086063          0.7147
H299       H    0.0480007581    0.3499536977   -0.0753396043          0.7154
N300       N   -0.0130965117    0.2124574830    0.0046114415         -0.2429
C301       C    0.0004309407    0.1786421419   -0.0125743173         -0.2497
C302       C   -0.0000000000    0.1428310591    0.0000000000         -0.2504
H303       H   -0.0125330108    0.1389479451    0.0274120953         -0.2451
H304       H    0.0137021678    0.1796058614   -0.0402231797         -0.2554
C257       C   -0.3571689409   -0.0000000000    0.0000000000         -0.2591
C258       C   -0.3346197794   -0.0283485848    0.0097944026         -0.2508
C259       C   -0.2977208158   -0.0265394480    0.0058710000         -0.2474
C260       C   -0.2806796897    0.0032064067   -0.0085994017         -0.2514
C261       C   -0.3028742335    0.0317969228   -0.0196365624         -0.2589
C262       C   -0.3406407895    0.0304609901   -0.0147301667          0.7367
N263       N   -0.2441563581    0.0034746225   -0.0108090983         -0.2485
H264       H   -0.2811499895   -0.0503699473    0.0148794725         -0.2411
H265       H   -0.3455819760   -0.0540082966    0.0216929554         -0.2468
N266       N   -0.3620183956    0.0601536114   -0.0235620874          0.7271
C267       C   -0.2843899872    0.0649179495   -0.0397842102         -0.2605
C268       C   -0.2597937251    0.0900799965   -0.0150298884          0.7099
H269       H   -0.2396294446    0.0740569045    0.0011749679          0.7071
H270       H   -0.2440319049    0.1092649868   -0.0327159987          0.7135
H271       H   -0.2767637061    0.1064473807    0.0041735158           0.687
H272       H   -0.3045939331    0.0826550695   -0.0539900948           -0.26
H273       H   -0.2670446866    0.0537958505   -0.0622519490         -0.2379
H274       H   -0.3868018328    0.0635519633   -0.0100997245          0.7147
H275       H   -0.3499536977    0.0858319094   -0.0247590808          0.7154
N276       N   -0.2124574830   -0.0128728017   -0.0052033630         -0.2429
C277       C   -0.1786421419    0.0086399197   -0.0091460896         -0.2497
C278       C   -0.1428310591   -0.0000000000    0.0000000000         -0.2504
H279       H   -0.1389479451   -0.0275305981    0.0122705132         -0.2451
H280       H   -0.1796058614    0.0368808008   -0.0211059262         -0.2554
C233       C    0.3571689409   -0.0000000000    0.0000000000         -0.2591
C234       C    0.3346197794    0.0211011214    0.0213146723         -0.2508
C235       C    0.2977208158    0.0212122114    0.0169956768         -0.2474
C236       C    0.2806796897    0.0009242520   -0.0091310740         -0.2514
C237       C    0.3028742335   -0.0198446515   -0.0316674705         -0.2589
C238       C    0.3406407895   -0.0208146598   -0.0266758256          0.7367
N239       N    0.2441563581    0.0016602321   -0.0112317958         -0.2485
H240       H    0.2811499895    0.0386077786    0.0356085625         -0.2411
H241       H    0.3455819760    0.0388602862    0.0433284961         -0.2468
N242       N    0.3620183956   -0.0435468047   -0.0477211141          0.7271
C243       C    0.2843899872   -0.0406512004   -0.0643785947         -0.2605
C244       C    0.2597937251   -0.0741627526   -0.0532934278          0.7099
H245       H    0.2396294446   -0.0669511881   -0.0316756069          0.7071
H246       H    0.2440319049   -0.0835560190   -0.0776373983          0.7135
H247       H    0.2767637061   -0.0973319128   -0.0433008297           0.687
H248       H    0.3045939331   -0.0502837639   -0.0849607788           -0.26
H249       H    0.2670446866   -0.0207445847   -0.0796175916         -0.2379
H250       H    0.3868018328   -0.0525449763   -0.0371467622          0.7147
H251       H    0.3499536977   -0.0660522179   -0.0601434391          0.7154
N252       N    0.2124574830    0.0138470380    0.0010215428         -0.2429
C253       C    0.1786421419   -0.0037082095   -0.0120228262         -0.2497
C254       C    0.1428310591   -0.0000000000    0.0000000000         -0.2504
H255       H    0.1389479451    0.0192730336    0.0231743285         -0.2451
H256       H    0.1796058614   -0.0237556986   -0.0352323768         -0.2554
C209       C   -0.0000000000    0.0000000000   -0.3571689409         -0.2591
C210       C    0.0296105499    0.0047736685   -0.3346197794         -0.2508
C211       C    0.0261613216    0.0073753772   -0.2977208158         -0.2474
C212       C   -0.0068913883    0.0060613135   -0.2806796897         -0.2514
C213       C   -0.0373027296    0.0022683140   -0.3028742335         -0.2589
C214       C   -0.0338056789   -0.0014233078   -0.3406407895          0.7367
N215       N   -0.0081725372    0.0078815762   -0.2441563581         -0.2485
H216       H    0.0514191318    0.0107052873   -0.2811499895         -0.2411
H217       H    0.0578466930    0.0064218784   -0.3455819760         -0.2468
N218       N   -0.0641454422   -0.0076805710   -0.3620183956          0.7271
C219       C   -0.0760138547    0.0043608976   -0.2843899872         -0.2605
C220       C   -0.0864809206   -0.0293488279   -0.2597937251          0.7099
H221       H   -0.0646999764   -0.0360516119   -0.2396294446          0.7071
H222       H   -0.1117483645   -0.0228358696   -0.2440319049          0.7135
H223       H   -0.0918231715   -0.0540089648   -0.2767637061           0.687
H224       H   -0.0983599489    0.0084918369   -0.3045939331           -0.26
H225       H   -0.0768369813    0.0294172907   -0.2670446866         -0.2379
H226       H   -0.0607745121   -0.0211498264   -0.3868018328          0.7147
H227       H   -0.0873379503   -0.0187672907   -0.3499536977          0.7154
N228       N    0.0088826172    0.0106716035   -0.2124574830         -0.2429
C229       C   -0.0119376399    0.0039739049   -0.1786421419         -0.2497
C230       C   -0.0000000000   -0.0000000000   -0.1428310591         -0.2504
H231       H    0.0300605557    0.0022050656   -0.1389479451         -0.2451
H232       H   -0.0424771673    0.0011592426   -0.1796058614         -0.2554
C185       C   -0.0000000000    0.0000000000    0.3571689409         -0.2591
C186       C   -0.0203026874   -0.0220765365    0.3346197794         -0.2508
C187       C   -0.0205725945   -0.0177645516    0.2977208158         -0.2474
C188       C   -0.0012595512    0.0090908902    0.2806796897         -0.2514
C189       C    0.0186661970    0.0323761018    0.3028742335         -0.2589
C190       C    0.0198191872    0.0274235218    0.3406407895          0.7367
N191       N   -0.0020723169    0.0111631139    0.2441563581         -0.2485
H192       H   -0.0372716328   -0.0370048061    0.2811499895         -0.2411
H193       H   -0.0372399593   -0.0447288033    0.3455819760         -0.2468
N194       N    0.0417617044    0.0492908610    0.3620183956          0.7271
C195       C    0.0382552450    0.0658305383    0.2843899872         -0.2605
C196       C    0.0721519259    0.0559857385    0.2597937251          0.7099
H197       H    0.0657405454    0.0341172441    0.2396294446          0.7071
H198       H    0.0806432385    0.0806587999    0.2440319049          0.7135
H199       H    0.0956730213    0.0468522796    0.2767637061           0.687
H200       H    0.0471240859    0.0867531635    0.3045939331           -0.26
H201       H    0.0178014748    0.0803268709    0.2670446866         -0.2379
H202       H    0.0511428065    0.0390547029    0.3868018328          0.7147
H203       H    0.0637948753    0.0625327326    0.3499536977          0.7154
N204       N   -0.0138000825   -0.0015302726    0.2124574830         -0.2429
C205       C    0.0032633891    0.0121511093    0.1786421419         -0.2497
C206       C    0.0000000000    0.0000000000    0.1428310591         -0.2504
H207       H   -0.0184074218   -0.0238676800    0.1389479451         -0.2451
H208       H    0.0224434465    0.0360824791    0.1796058614         -0.2554
loop_
_geom_bond_atom_site_label_1
_geom_bond_atom_site_label_2
_geom_bond_distance
_geom_bond_site_symmetry_2
_ccdc_geom_bond_type
Zn1          O5 1.942       .   S
Zn1          O6 1.922       .   S
Zn1         O10 1.922       .   S
Zn1         O17 1.922       .   S
Zn2          O5 1.942       .   S
Zn2          O7 1.922       .   S
Zn2          O9 1.922       .   S
Zn2         O13 1.922       .   S
Zn3          O5 1.942       .   S
Zn3          O8 1.922       .   S
Zn3         O11 1.922       .   S
Zn3         O14 1.922       .   S
Zn4          O5 1.942       .   S
Zn4         O12 1.922       .   S
Zn4         O15 1.922       .   S
Zn4         O16 1.922       .   S
O6          C18 1.304       .   A
O7          C19 1.304       .   A
O8          C20 1.304       .   A
O9          C18 1.304       .   A
O10         C20 1.304       .   A
O11         C19 1.304       .   A
O12         C21 1.304       .   A
O13         C22 1.304       .   A
O14         C21 1.304       .   A
O15         C22 1.304       .   A
O16         C23 1.304       .   A
O17         C23 1.304       .   A
C18        C254 1.540       .   S
C19        C230 1.540       .   S
C20        C305 1.540       .   S
C21        C278 1.540       .   S
C22        C302 1.540       .   S
C23        C206 1.540       .   S
Zn24        O28 1.942       .   S
Zn24        O29 1.922       .   S
Zn24        O33 1.922       .   S
Zn24        O40 1.922       .   S
Zn25        O28 1.942       .   S
Zn25        O30 1.922       .   S
Zn25        O32 1.922       .   S
Zn25        O36 1.922       .   S
Zn26        O28 1.942       .   S
Zn26        O31 1.922       .   S
Zn26        O34 1.922       .   S
Zn26        O37 1.922       .   S
Zn27        O28 1.942       .   S
Zn27        O35 1.922       .   S
Zn27        O38 1.922       .   S
Zn27        O39 1.922       .   S
O29         C41 1.304       .   A
O30         C42 1.304       .   A
O31         C43 1.304       .   A
O32         C41 1.304       .   A
O33         C43 1.304       .   A
O34         C42 1.304       .   A
O35         C44 1.304       .   A
O36         C45 1.304       .   A
O37         C44 1.304       .   A
O38         C45 1.304       .   A
O39         C46 1.304       .   A
O40         C46 1.304       .   A
C41        C185 1.540   1_655   S
C42        C422 1.540       .   S
C43        C329 1.540       .   S
C44        C209 1.540   1_656   S
C45        C374 1.540       .   S
C46        C377 1.540       .   S
Zn47        O51 1.942       .   S
Zn47        O52 1.922       .   S
Zn47        O56 1.922       .   S
Zn47        O63 1.922       .   S
Zn48        O51 1.942       .   S
Zn48        O53 1.922       .   S
Zn48        O55 1.922       .   S
Zn48        O59 1.922       .   S
Zn49        O51 1.942       .   S
Zn49        O54 1.922       .   S
Zn49        O57 1.922       .   S
Zn49        O60 1.922       .   S
Zn50        O51 1.942       .   S
Zn50        O58 1.922       .   S
Zn50        O61 1.922       .   S
Zn50        O62 1.922       .   S
O52         C64 1.304       .   A
O53         C65 1.304       .   A
O54         C66 1.304       .   A
O55         C64 1.304       .   A
O56         C66 1.304       .   A
O57         C65 1.304       .   A
O58         C67 1.304       .   A
O59         C68 1.304       .   A
O60         C67 1.304       .   A
O61         C68 1.304       .   A
O62         C69 1.304       .   A
O63         C69 1.304       .   A
C64        C281 1.540   1_655   S
C65        C473 1.540       .   S
C66        C449 1.540       .   S
C67        C326 1.540   1_665   S
C68        C446 1.540       .   S
C69        C497 1.540       .   S
Zn70        O74 1.942       .   S
Zn70        O75 1.922       .   S
Zn70        O79 1.922       .   S
Zn70        O86 1.922       .   S
Zn71        O74 1.942       .   S
Zn71        O76 1.922       .   S
Zn71        O78 1.922       .   S
Zn71        O82 1.922       .   S
Zn72        O74 1.942       .   S
Zn72        O77 1.922       .   S
Zn72        O80 1.922       .   S
Zn72        O83 1.922       .   S
Zn73        O74 1.942       .   S
Zn73        O81 1.922       .   S
Zn73        O84 1.922       .   S
Zn73        O85 1.922       .   S
O75         C87 1.304       .   A
O76         C88 1.304       .   A
O77         C89 1.304       .   A
O78         C87 1.304       .   A
O79         C89 1.304       .   A
O80         C88 1.304       .   A
O81         C90 1.304       .   A
O82         C91 1.304       .   A
O83         C90 1.304       .   A
O84         C91 1.304       .   A
O85         C92 1.304       .   A
O86         C92 1.304       .   A
C87        C398 1.540       .   S
C88        C425 1.540       .   S
C89        C566 1.540       .   S
C90        C401 1.540   1_565   S
C91        C521 1.540       .   S
C92        C470 1.540   1_556   S
Zn93        O97 1.942       .   S
Zn93        O98 1.922       .   S
Zn93       O102 1.922       .   S
Zn93       O109 1.922       .   S
Zn94        O97 1.942       .   S
Zn94        O99 1.922       .   S
Zn94       O101 1.922       .   S
Zn94       O105 1.922       .   S
Zn95        O97 1.942       .   S
Zn95       O100 1.922       .   S
Zn95       O103 1.922       .   S
Zn95       O106 1.922       .   S
Zn96        O97 1.942       .   S
Zn96       O104 1.922       .   S
Zn96       O107 1.922       .   S
Zn96       O108 1.922       .   S
O98        C110 1.304       .   A
O99        C111 1.304       .   A
O100       C112 1.304       .   A
O101       C110 1.304       .   A
O102       C112 1.304       .   A
O103       C111 1.304       .   A
O104       C113 1.304       .   A
O105       C114 1.304       .   A
O106       C113 1.304       .   A
O107       C114 1.304       .   A
O108       C115 1.304       .   A
O109       C115 1.304       .   A
C110       C233 1.540   1_565   S
C111       C569 1.540       .   S
C112       C641 1.540       .   S
C113       C257 1.540   1_665   S
C114       C617 1.540       .   S
C115       C593 1.540       .   S
Zn116      O120 1.942       .   S
Zn116      O121 1.922       .   S
Zn116      O125 1.922       .   S
Zn116      O132 1.922       .   S
Zn117      O120 1.942       .   S
Zn117      O122 1.922       .   S
Zn117      O124 1.922       .   S
Zn117      O128 1.922       .   S
Zn118      O120 1.942       .   S
Zn118      O123 1.922       .   S
Zn118      O126 1.922       .   S
Zn118      O129 1.922       .   S
Zn119      O120 1.942       .   S
Zn119      O127 1.922       .   S
Zn119      O130 1.922       .   S
Zn119      O131 1.922       .   S
O121       C133 1.304       .   A
O122       C134 1.304       .   A
O123       C135 1.304       .   A
O124       C133 1.304       .   A
O125       C135 1.304       .   A
O126       C134 1.304       .   A
O127       C136 1.304       .   A
O128       C137 1.304       .   A
O129       C136 1.304       .   A
O130       C137 1.304       .   A
O131       C138 1.304       .   A
O132       C138 1.304       .   A
C133       C350 1.540   1_465   S
C134       C590 1.540       .   S
C135       C665 1.540       .   S
C136       C353 1.540   1_565   S
C137       C689 1.540       .   S
C138       C614 1.540   1_556   S
Zn139      O143 1.942       .   S
Zn139      O144 1.922       .   S
Zn139      O148 1.922       .   S
Zn139      O155 1.922       .   S
Zn140      O143 1.942       .   S
Zn140      O145 1.922       .   S
Zn140      O147 1.922       .   S
Zn140      O151 1.922       .   S
Zn141      O143 1.942       .   S
Zn141      O146 1.922       .   S
Zn141      O149 1.922       .   S
Zn141      O152 1.922       .   S
Zn142      O143 1.942       .   S
Zn142      O150 1.922       .   S
Zn142      O153 1.922       .   S
Zn142      O154 1.922       .   S
O144       C156 1.304       .   A
O145       C157 1.304       .   A
O146       C158 1.304       .   A
O147       C156 1.304       .   A
O148       C158 1.304       .   A
O149       C157 1.304       .   A
O150       C159 1.304       .   A
O151       C160 1.304       .   A
O152       C159 1.304       .   A
O153       C160 1.304       .   A
O154       C161 1.304       .   A
O155       C161 1.304       .   A
C156       C494 1.540   1_455   S
C157       C638 1.540   1_545   S
C158       C737 1.540       .   S
C159       C518 1.540       .   S
C160       C713 1.540       .   S
C161       C662 1.540       .   S
Zn162      O166 1.942       .   S
Zn162      O167 1.922       .   S
Zn162      O171 1.922       .   S
Zn162      O178 1.922       .   S
Zn163      O166 1.942       .   S
Zn163      O168 1.922       .   S
Zn163      O170 1.922       .   S
Zn163      O174 1.922       .   S
Zn164      O166 1.942       .   S
Zn164      O169 1.922       .   S
Zn164      O172 1.922       .   S
Zn164      O175 1.922       .   S
Zn165      O166 1.942       .   S
Zn165      O173 1.922       .   S
Zn165      O176 1.922       .   S
Zn165      O177 1.922       .   S
O167       C179 1.304       .   A
O168       C180 1.304       .   A
O169       C181 1.304       .   A
O170       C179 1.304       .   A
O171       C181 1.304       .   A
O172       C180 1.304       .   A
O173       C182 1.304       .   A
O174       C183 1.304       .   A
O175       C182 1.304       .   A
O176       C183 1.304       .   A
O177       C184 1.304       .   A
O178       C184 1.304       .   A
C179       C542 1.540   1_455   S
C180       C686 1.540   1_545   S
C181       C734 1.540       .   S
C182       C545 1.540       .   S
C183       C758 1.540   1_556   S
C184       C710 1.540       .   S
C737       C738 0.033       .   A
C737       C742 0.033       .   A
C738       C739 0.033       .   A
C738       H745 0.027       .   A
C739       C740 0.033       .   A
C739       H744 0.027       .   A
C740       C741 0.033       .   A
C740       N743 0.032       .   A
C741       C742 0.034       .   A
C741       C747 0.038       .   A
C742       N746 0.033       .   A
N743       N756 0.032       .   A
N746       H754 0.025       .   A
N746       H755 0.025       .   A
C747       C748 0.038       .   A
C747       H752 0.027       .   A
C747       H753 0.027       .   A
C748       H749 0.027       .   A
C748       H750 0.027       .   A
C748       H751 0.027       .   A
N756       C757 0.036       .   A
C757       C758 0.034       .   A
C757       H760 0.027       .   A
C758       H759 0.027       .   A
C713       C714 0.033       .   A
C713       C718 0.033       .   A
C714       C715 0.033       .   A
C714       H721 0.027       .   A
C715       C716 0.033       .   A
C715       H720 0.027       .   A
C716       C717 0.033       .   A
C716       N719 0.032       .   A
C717       C718 0.034       .   A
C717       C723 0.038       .   A
C718       N722 0.033       .   A
N719       N732 0.032       .   A
N722       H730 0.025       .   A
N722       H731 0.025       .   A
C723       C724 0.038       .   A
C723       H728 0.027       .   A
C723       H729 0.027       .   A
C724       H725 0.027       .   A
C724       H726 0.027       .   A
C724       H727 0.027       .   A
N732       C733 0.036       .   A
C733       C734 0.034       .   A
C733       H736 0.027       .   A
C734       H735 0.027       .   A
C689       C690 0.033       .   A
C689       C694 0.033       .   A
C690       C691 0.033       .   A
C690       H697 0.027       .   A
C691       C692 0.033       .   A
C691       H696 0.027       .   A
C692       C693 0.033       .   A
C692       N695 0.032       .   A
C693       C694 0.034       .   A
C693       C699 0.038       .   A
C694       N698 0.033       .   A
N695       N708 0.032       .   A
N698       H706 0.025       .   A
N698       H707 0.025       .   A
C699       C700 0.038       .   A
C699       H704 0.027       .   A
C699       H705 0.027       .   A
C700       H701 0.027       .   A
C700       H702 0.027       .   A
C700       H703 0.027       .   A
N708       C709 0.036       .   A
C709       C710 0.034       .   A
C709       H712 0.027       .   A
C710       H711 0.027       .   A
C665       C666 0.033       .   A
C665       C670 0.033       .   A
C666       C667 0.033       .   A
C666       H673 0.027       .   A
C667       C668 0.033       .   A
C667       H672 0.027       .   A
C668       C669 0.033       .   A
C668       N671 0.032       .   A
C669       C670 0.034       .   A
C669       C675 0.038       .   A
C670       N674 0.033       .   A
N671       N684 0.032       .   A
N674       H682 0.025       .   A
N674       H683 0.025       .   A
C675       C676 0.038       .   A
C675       H680 0.027       .   A
C675       H681 0.027       .   A
C676       H677 0.027       .   A
C676       H678 0.027       .   A
C676       H679 0.027       .   A
N684       C685 0.036       .   A
C685       C686 0.034       .   A
C685       H688 0.027       .   A
C686       H687 0.027       .   A
C641       C642 0.033       .   A
C641       C646 0.033       .   A
C642       C643 0.033       .   A
C642       H649 0.027       .   A
C643       C644 0.033       .   A
C643       H648 0.027       .   A
C644       C645 0.033       .   A
C644       N647 0.032       .   A
C645       C646 0.034       .   A
C645       C651 0.038       .   A
C646       N650 0.033       .   A
N647       N660 0.032       .   A
N650       H658 0.025       .   A
N650       H659 0.025       .   A
C651       C652 0.038       .   A
C651       H656 0.027       .   A
C651       H657 0.027       .   A
C652       H653 0.027       .   A
C652       H654 0.027       .   A
C652       H655 0.027       .   A
N660       C661 0.036       .   A
C661       C662 0.034       .   A
C661       H664 0.027       .   A
C662       H663 0.027       .   A
C617       C618 0.033       .   A
C617       C622 0.033       .   A
C618       C619 0.033       .   A
C618       H625 0.027       .   A
C619       C620 0.033       .   A
C619       H624 0.027       .   A
C620       C621 0.033       .   A
C620       N623 0.032       .   A
C621       C622 0.034       .   A
C621       C627 0.038       .   A
C622       N626 0.033       .   A
N623       N636 0.032       .   A
N626       H634 0.025       .   A
N626       H635 0.025       .   A
C627       C628 0.038       .   A
C627       H632 0.027       .   A
C627       H633 0.027       .   A
C628       H629 0.027       .   A
C628       H630 0.027       .   A
C628       H631 0.027       .   A
N636       C637 0.036       .   A
C637       C638 0.034       .   A
C637       H640 0.027       .   A
C638       H639 0.027       .   A
C593       C594 0.033       .   A
C593       C598 0.033       .   A
C594       C595 0.033       .   A
C594       H601 0.027       .   A
C595       C596 0.033       .   A
C595       H600 0.027       .   A
C596       C597 0.033       .   A
C596       N599 0.032       .   A
C597       C598 0.034       .   A
C597       C603 0.038       .   A
C598       N602 0.033       .   A
N599       N612 0.032       .   A
N602       H610 0.025       .   A
N602       H611 0.025       .   A
C603       C604 0.038       .   A
C603       H608 0.027       .   A
C603       H609 0.027       .   A
C604       H605 0.027       .   A
C604       H606 0.027       .   A
C604       H607 0.027       .   A
N612       C613 0.036       .   A
C613       C614 0.034       .   A
C613       H616 0.027       .   A
C614       H615 0.027       .   A
C569       C570 0.033       .   A
C569       C574 0.033       .   A
C570       C571 0.033       .   A
C570       H577 0.027       .   A
C571       C572 0.033       .   A
C571       H576 0.027       .   A
C572       C573 0.033       .   A
C572       N575 0.032       .   A
C573       C574 0.034       .   A
C573       C579 0.038       .   A
C574       N578 0.033       .   A
N575       N588 0.032       .   A
N578       H586 0.025       .   A
N578       H587 0.025       .   A
C579       C580 0.038       .   A
C579       H584 0.027       .   A
C579       H585 0.027       .   A
C580       H581 0.027       .   A
C580       H582 0.027       .   A
C580       H583 0.027       .   A
N588       C589 0.036       .   A
C589       C590 0.034       .   A
C589       H592 0.027       .   A
C590       H591 0.027       .   A
C545       C546 0.033       .   A
C545       C550 0.033       .   A
C546       C547 0.033       .   A
C546       H553 0.027       .   A
C547       C548 0.033       .   A
C547       H552 0.027       .   A
C548       C549 0.033       .   A
C548       N551 0.032       .   A
C549       C550 0.034       .   A
C549       C555 0.038       .   A
C550       N554 0.033       .   A
N551       N564 0.032       .   A
N554       H562 0.025       .   A
N554       H563 0.025       .   A
C555       C556 0.038       .   A
C555       H560 0.027       .   A
C555       H561 0.027       .   A
C556       H557 0.027       .   A
C556       H558 0.027       .   A
C556       H559 0.027       .   A
N564       C565 0.036       .   A
C565       C566 0.034       .   A
C565       H568 0.027       .   A
C566       H567 0.027       .   A
C521       C522 0.033       .   A
C521       C526 0.033       .   A
C522       C523 0.033       .   A
C522       H529 0.027       .   A
C523       C524 0.033       .   A
C523       H528 0.027       .   A
C524       C525 0.033       .   A
C524       N527 0.032       .   A
C525       C526 0.034       .   A
C525       C531 0.038       .   A
C526       N530 0.033       .   A
N527       N540 0.032       .   A
N530       H538 0.025       .   A
N530       H539 0.025       .   A
C531       C532 0.038       .   A
C531       H536 0.027       .   A
C531       H537 0.027       .   A
C532       H533 0.027       .   A
C532       H534 0.027       .   A
C532       H535 0.027       .   A
N540       C541 0.036       .   A
C541       C542 0.034       .   A
C541       H544 0.027       .   A
C542       H543 0.027       .   A
C497       C498 0.033       .   A
C497       C502 0.033       .   A
C498       C499 0.033       .   A
C498       H505 0.027       .   A
C499       C500 0.033       .   A
C499       H504 0.027       .   A
C500       C501 0.033       .   A
C500       N503 0.032       .   A
C501       C502 0.034       .   A
C501       C507 0.038       .   A
C502       N506 0.033       .   A
N503       N516 0.032       .   A
N506       H514 0.025       .   A
N506       H515 0.025       .   A
C507       C508 0.038       .   A
C507       H512 0.027       .   A
C507       H513 0.027       .   A
C508       H509 0.027       .   A
C508       H510 0.027       .   A
C508       H511 0.027       .   A
N516       C517 0.036       .   A
C517       C518 0.034       .   A
C517       H520 0.027       .   A
C518       H519 0.027       .   A
C473       C474 0.033       .   A
C473       C478 0.033       .   A
C474       C475 0.033       .   A
C474       H481 0.027       .   A
C475       C476 0.033       .   A
C475       H480 0.027       .   A
C476       C477 0.033       .   A
C476       N479 0.032       .   A
C477       C478 0.034       .   A
C477       C483 0.038       .   A
C478       N482 0.033       .   A
N479       N492 0.032       .   A
N482       H490 0.025       .   A
N482       H491 0.025       .   A
C483       C484 0.038       .   A
C483       H488 0.027       .   A
C483       H489 0.027       .   A
C484       H485 0.027       .   A
C484       H486 0.027       .   A
C484       H487 0.027       .   A
N492       C493 0.036       .   A
C493       C494 0.034       .   A
C493       H496 0.027       .   A
C494       H495 0.027       .   A
C449       C450 0.033       .   A
C449       C454 0.033       .   A
C450       C451 0.033       .   A
C450       H457 0.027       .   A
C451       C452 0.033       .   A
C451       H456 0.027       .   A
C452       C453 0.033       .   A
C452       N455 0.032       .   A
C453       C454 0.034       .   A
C453       C459 0.038       .   A
C454       N458 0.033       .   A
N455       N468 0.032       .   A
N458       H466 0.025       .   A
N458       H467 0.025       .   A
C459       C460 0.038       .   A
C459       H464 0.027       .   A
C459       H465 0.027       .   A
C460       H461 0.027       .   A
C460       H462 0.027       .   A
C460       H463 0.027       .   A
N468       C469 0.036       .   A
C469       C470 0.034       .   A
C469       H472 0.027       .   A
C470       H471 0.027       .   A
C425       C426 0.033       .   A
C425       C430 0.033       .   A
C426       C427 0.033       .   A
C426       H433 0.027       .   A
C427       C428 0.033       .   A
C427       H432 0.027       .   A
C428       C429 0.033       .   A
C428       N431 0.032       .   A
C429       C430 0.034       .   A
C429       C435 0.038       .   A
C430       N434 0.033       .   A
N431       N444 0.032       .   A
N434       H442 0.025       .   A
N434       H443 0.025       .   A
C435       C436 0.038       .   A
C435       H440 0.027       .   A
C435       H441 0.027       .   A
C436       H437 0.027       .   A
C436       H438 0.027       .   A
C436       H439 0.027       .   A
N444       C445 0.036       .   A
C445       C446 0.034       .   A
C445       H448 0.027       .   A
C446       H447 0.027       .   A
C401       C402 0.033       .   A
C401       C406 0.033       .   A
C402       C403 0.033       .   A
C402       H409 0.027       .   A
C403       C404 0.033       .   A
C403       H408 0.027       .   A
C404       C405 0.033       .   A
C404       N407 0.032       .   A
C405       C406 0.034       .   A
C405       C411 0.038       .   A
C406       N410 0.033       .   A
N407       N420 0.032       .   A
N410       H418 0.025       .   A
N410       H419 0.025       .   A
C411       C412 0.038       .   A
C411       H416 0.027       .   A
C411       H417 0.027       .   A
C412       H413 0.027       .   A
C412       H414 0.027       .   A
C412       H415 0.027       .   A
N420       C421 0.036       .   A
C421       C422 0.034       .   A
C421       H424 0.027       .   A
C422       H423 0.027       .   A
C377       C378 0.033       .   A
C377       C382 0.033       .   A
C378       C379 0.033       .   A
C378       H385 0.027       .   A
C379       C380 0.033       .   A
C379       H384 0.027       .   A
C380       C381 0.033       .   A
C380       N383 0.032       .   A
C381       C382 0.034       .   A
C381       C387 0.038       .   A
C382       N386 0.033       .   A
N383       N396 0.032       .   A
N386       H394 0.025       .   A
N386       H395 0.025       .   A
C387       C388 0.038       .   A
C387       H392 0.027       .   A
C387       H393 0.027       .   A
C388       H389 0.027       .   A
C388       H390 0.027       .   A
C388       H391 0.027       .   A
N396       C397 0.036       .   A
C397       C398 0.034       .   A
C397       H400 0.027       .   A
C398       H399 0.027       .   A
C353       C354 0.033       .   A
C353       C358 0.033       .   A
C354       C355 0.033       .   A
C354       H361 0.027       .   A
C355       C356 0.033       .   A
C355       H360 0.027       .   A
C356       C357 0.033       .   A
C356       N359 0.032       .   A
C357       C358 0.034       .   A
C357       C363 0.038       .   A
C358       N362 0.033       .   A
N359       N372 0.032       .   A
N362       H370 0.025       .   A
N362       H371 0.025       .   A
C363       C364 0.038       .   A
C363       H368 0.027       .   A
C363       H369 0.027       .   A
C364       H365 0.027       .   A
C364       H366 0.027       .   A
C364       H367 0.027       .   A
N372       C373 0.036       .   A
C373       C374 0.034       .   A
C373       H376 0.027       .   A
C374       H375 0.027       .   A
C329       C330 0.033       .   A
C329       C334 0.033       .   A
C330       C331 0.033       .   A
C330       H337 0.027       .   A
C331       C332 0.033       .   A
C331       H336 0.027       .   A
C332       C333 0.033       .   A
C332       N335 0.032       .   A
C333       C334 0.034       .   A
C333       C339 0.038       .   A
C334       N338 0.033       .   A
N335       N348 0.032       .   A
N338       H346 0.025       .   A
N338       H347 0.025       .   A
C339       C340 0.038       .   A
C339       H344 0.027       .   A
C339       H345 0.027       .   A
C340       H341 0.027       .   A
C340       H342 0.027       .   A
C340       H343 0.027       .   A
N348       C349 0.036       .   A
C349       C350 0.034       .   A
C349       H352 0.027       .   A
C350       H351 0.027       .   A
C305       C306 0.033       .   A
C305       C310 0.033       .   A
C306       C307 0.033       .   A
C306       H313 0.027       .   A
C307       C308 0.033       .   A
C307       H312 0.027       .   A
C308       C309 0.033       .   A
C308       N311 0.032       .   A
C309       C310 0.034       .   A
C309       C315 0.038       .   A
C310       N314 0.033       .   A
N311       N324 0.032       .   A
N314       H322 0.025       .   A
N314       H323 0.025       .   A
C315       C316 0.038       .   A
C315       H320 0.027       .   A
C315       H321 0.027       .   A
C316       H317 0.027       .   A
C316       H318 0.027       .   A
C316       H319 0.027       .   A
N324       C325 0.036       .   A
C325       C326 0.034       .   A
C325       H328 0.027       .   A
C326       H327 0.027       .   A
C281       C282 0.033       .   A
C281       C286 0.033       .   A
C282       C283 0.033       .   A
C282       H289 0.027       .   A
C283       C284 0.033       .   A
C283       H288 0.027       .   A
C284       C285 0.033       .   A
C284       N287 0.032       .   A
C285       C286 0.034       .   A
C285       C291 0.038       .   A
C286       N290 0.033       .   A
N287       N300 0.032       .   A
N290       H298 0.025       .   A
N290       H299 0.025       .   A
C291       C292 0.038       .   A
C291       H296 0.027       .   A
C291       H297 0.027       .   A
C292       H293 0.027       .   A
C292       H294 0.027       .   A
C292       H295 0.027       .   A
N300       C301 0.036       .   A
C301       C302 0.034       .   A
C301       H304 0.027       .   A
C302       H303 0.027       .   A
C257       C258 0.033       .   A
C257       C262 0.033       .   A
C258       C259 0.033       .   A
C258       H265 0.027       .   A
C259       C260 0.033       .   A
C259       H264 0.027       .   A
C260       C261 0.033       .   A
C260       N263 0.032       .   A
C261       C262 0.034       .   A
C261       C267 0.038       .   A
C262       N266 0.033       .   A
N263       N276 0.032       .   A
N266       H274 0.025       .   A
N266       H275 0.025       .   A
C267       C268 0.038       .   A
C267       H272 0.027       .   A
C267       H273 0.027       .   A
C268       H269 0.027       .   A
C268       H270 0.027       .   A
C268       H271 0.027       .   A
N276       C277 0.036       .   A
C277       C278 0.034       .   A
C277       H280 0.027       .   A
C278       H279 0.027       .   A
C233       C234 0.033       .   A
C233       C238 0.033       .   A
C234       C235 0.033       .   A
C234       H241 0.027       .   A
C235       C236 0.033       .   A
C235       H240 0.027       .   A
C236       C237 0.033       .   A
C236       N239 0.032       .   A
C237       C238 0.034       .   A
C237       C243 0.038       .   A
C238       N242 0.033       .   A
N239       N252 0.032       .   A
N242       H250 0.025       .   A
N242       H251 0.025       .   A
C243       C244 0.038       .   A
C243       H248 0.027       .   A
C243       H249 0.027       .   A
C244       H245 0.027       .   A
C244       H246 0.027       .   A
C244       H247 0.027       .   A
N252       C253 0.036       .   A
C253       C254 0.034       .   A
C253       H256 0.027       .   A
C254       H255 0.027       .   A
C209       C210 0.033       .   A
C209       C214 0.033       .   A
C210       C211 0.033       .   A
C210       H217 0.027       .   A
C211       C212 0.033       .   A
C211       H216 0.027       .   A
C212       C213 0.033       .   A
C212       N215 0.032       .   A
C213       C214 0.034       .   A
C213       C219 0.038       .   A
C214       N218 0.033       .   A
N215       N228 0.032       .   A
N218       H226 0.025       .   A
N218       H227 0.025       .   A
C219       C220 0.038       .   A
C219       H224 0.027       .   A
C219       H225 0.027       .   A
C220       H221 0.027       .   A
C220       H222 0.027       .   A
C220       H223 0.027       .   A
N228       C229 0.036       .   A
C229       C230 0.034       .   A
C229       H232 0.027       .   A
C230       H231 0.027       .   A
C185       C186 0.033       .   A
C185       C190 0.033       .   A
C186       C187 0.033       .   A
C186       H193 0.027       .   A
C187       C188 0.033       .   A
C187       H192 0.027       .   A
C188       C189 0.033       .   A
C188       N191 0.032       .   A
C189       C190 0.034       .   A
C189       C195 0.038       .   A
C190       N194 0.033       .   A
N191       N204 0.032       .   A
N194       H202 0.025       .   A
N194       H203 0.025       .   A
C195       C196 0.038       .   A
C195       H200 0.027       .   A
C195       H201 0.027       .   A
C196       H197 0.027       .   A
C196       H198 0.027       .   A
C196       H199 0.027       .   A
N204       C205 0.036       .   A
C205       C206 0.034       .   A
C205       H208 0.027       .   A
C206       H207 0.027       .   A
