data_pcu_v1-6c_Zn_1_Ch_1-16_fer_tobacco
_audit_creation_date              2021-04-07
_audit_creation_method            'tobacco_3.0'
_symmetry_space_group_name_H-M    'P1'
_symmetry_Int_Tables_number       1
_symmetry_cell_setting            triclinic
loop_
_symmetry_equiv_pos_as_xyz
  x,y,z
_cell_length_a                    33.902318398538995
_cell_length_b                    33.902318398538995
_cell_length_c                    33.902318398538995
_cell_angle_alpha                 90.0
_cell_angle_beta                  90.0
_cell_angle_gamma                 90.0
loop_
_atom_site_label
_atom_site_type_symbol
_atom_site_fract_x
_atom_site_fract_y
_atom_site_fract_z
_atom_site_charge
Zn1       Zn   -0.0330714846   -0.0330714846    0.0330714846          1.4972
Zn2       Zn    0.0330714846    0.0330714846    0.0330714846          1.4936
Zn3       Zn    0.0330714846   -0.0330714846   -0.0330714846          1.4911
Zn4       Zn   -0.0330714846    0.0330714846   -0.0330714846          1.4948
O5         O    0.0000000000    0.0000000000    0.0000000000         -2.2333
O6         O   -0.0243051224   -0.0243051224    0.0883892354         -1.1396
O7         O    0.0883892354    0.0243051224    0.0243051224         -1.1378
O8         O    0.0243051224   -0.0883892354   -0.0243051224         -1.1329
O9         O    0.0243051224    0.0243051224    0.0883892354         -1.1397
O10        O   -0.0243051224   -0.0883892354    0.0243051224         -1.1357
O11        O    0.0883892354   -0.0243051224   -0.0243051224         -1.1416
O12        O   -0.0243051224    0.0243051224   -0.0883892354         -1.1355
O13        O    0.0243051224    0.0883892354    0.0243051224          -1.143
O14        O    0.0243051224   -0.0243051224   -0.0883892354         -1.1369
O15        O   -0.0243051224    0.0883892354   -0.0243051224         -1.1416
O16        O   -0.0883892354    0.0243051224   -0.0243051224         -1.1407
O17        O   -0.0883892354   -0.0243051224    0.0243051224         -1.1386
C18        C   -0.0000000000   -0.0000000000    0.1056800882          0.3793
C19        C    0.1056800882   -0.0000000000   -0.0000000000          0.3842
C20        C   -0.0000000000   -0.1056800882    0.0000000000          0.3738
C21        C    0.0000000000    0.0000000000   -0.1056800882          0.3776
C22        C    0.0000000000    0.1056800882   -0.0000000000          0.3889
C23        C   -0.1056800882    0.0000000000    0.0000000000          0.3794
Zn24      Zn    0.9669285154    0.0330714846    0.4669285154          1.4972
Zn25      Zn    1.0330714846   -0.0330714846    0.4669285154          1.4936
Zn26      Zn    1.0330714846    0.0330714846    0.5330714846          1.4911
Zn27      Zn    0.9669285154   -0.0330714846    0.5330714846          1.4948
O28        O    1.0000000000    0.0000000000    0.5000000000         -2.2333
O29        O    0.9756948776    0.0243051224    0.4116107646         -1.1396
O30        O    1.0883892354   -0.0243051224    0.4756948776         -1.1378
O31        O    1.0243051224    0.0883892354    0.5243051224         -1.1329
O32        O    1.0243051224   -0.0243051224    0.4116107646         -1.1397
O33        O    0.9756948776    0.0883892354    0.4756948776         -1.1357
O34        O    1.0883892354    0.0243051224    0.5243051224         -1.1416
O35        O    0.9756948776   -0.0243051224    0.5883892354         -1.1355
O36        O    1.0243051224   -0.0883892354    0.4756948776          -1.143
O37        O    1.0243051224    0.0243051224    0.5883892354         -1.1369
O38        O    0.9756948776   -0.0883892354    0.5243051224         -1.1416
O39        O    0.9116107646   -0.0243051224    0.5243051224         -1.1407
O40        O    0.9116107646    0.0243051224    0.4756948776         -1.1386
C41        C    1.0000000000    0.0000000000    0.3943199118          0.3793
C42        C    1.1056800882    0.0000000000    0.5000000000          0.3842
C43        C    1.0000000000    0.1056800882    0.5000000000          0.3738
C44        C    1.0000000000    0.0000000000    0.6056800882          0.3776
C45        C    1.0000000000   -0.1056800882    0.5000000000          0.3889
C46        C    0.8943199118    0.0000000000    0.5000000000          0.3794
Zn47      Zn    1.0330714846    0.4669285154   -0.0330714846          1.4972
Zn48      Zn    0.9669285154    0.4669285154    0.0330714846          1.4936
Zn49      Zn    1.0330714846    0.5330714846    0.0330714846          1.4911
Zn50      Zn    0.9669285154    0.5330714846   -0.0330714846          1.4948
O51        O    1.0000000000    0.5000000000    0.0000000000         -2.2333
O52        O    1.0243051224    0.4116107646   -0.0243051224         -1.1396
O53        O    0.9756948776    0.4756948776    0.0883892354         -1.1378
O54        O    1.0883892354    0.5243051224    0.0243051224         -1.1329
O55        O    0.9756948776    0.4116107646    0.0243051224         -1.1397
O56        O    1.0883892354    0.4756948776   -0.0243051224         -1.1357
O57        O    1.0243051224    0.5243051224    0.0883892354         -1.1416
O58        O    0.9756948776    0.5883892354   -0.0243051224         -1.1355
O59        O    0.9116107646    0.4756948776    0.0243051224          -1.143
O60        O    1.0243051224    0.5883892354    0.0243051224         -1.1369
O61        O    0.9116107646    0.5243051224   -0.0243051224         -1.1416
O62        O    0.9756948776    0.5243051224   -0.0883892354         -1.1407
O63        O    1.0243051224    0.4756948776   -0.0883892354         -1.1386
C64        C    1.0000000000    0.3943199118    0.0000000000          0.3793
C65        C    1.0000000000    0.5000000000    0.1056800882          0.3842
C66        C    1.1056800882    0.5000000000    0.0000000000          0.3738
C67        C    1.0000000000    0.6056800882    0.0000000000          0.3776
C68        C    0.8943199118    0.5000000000    0.0000000000          0.3889
C69        C    1.0000000000    0.5000000000   -0.1056800882          0.3794
Zn70      Zn    0.9669285154    0.4669285154    0.5330714846          1.4972
Zn71      Zn    1.0330714846    0.4669285154    0.4669285154          1.4936
Zn72      Zn    0.9669285154    0.5330714846    0.4669285154          1.4911
Zn73      Zn    1.0330714846    0.5330714846    0.5330714846          1.4948
O74        O    1.0000000000    0.5000000000    0.5000000000         -2.2333
O75        O    0.9756948776    0.4116107646    0.5243051224         -1.1396
O76        O    1.0243051224    0.4756948776    0.4116107646         -1.1378
O77        O    0.9116107646    0.5243051224    0.4756948776         -1.1329
O78        O    1.0243051224    0.4116107646    0.4756948776         -1.1397
O79        O    0.9116107646    0.4756948776    0.5243051224         -1.1357
O80        O    0.9756948776    0.5243051224    0.4116107646         -1.1416
O81        O    1.0243051224    0.5883892354    0.5243051224         -1.1355
O82        O    1.0883892354    0.4756948776    0.4756948776          -1.143
O83        O    0.9756948776    0.5883892354    0.4756948776         -1.1369
O84        O    1.0883892354    0.5243051224    0.5243051224         -1.1416
O85        O    1.0243051224    0.5243051224    0.5883892354         -1.1407
O86        O    0.9756948776    0.4756948776    0.5883892354         -1.1386
C87        C    1.0000000000    0.3943199118    0.5000000000          0.3793
C88        C    1.0000000000    0.5000000000    0.3943199118          0.3842
C89        C    0.8943199118    0.5000000000    0.5000000000          0.3738
C90        C    1.0000000000    0.6056800882    0.5000000000          0.3776
C91        C    1.1056800882    0.5000000000    0.5000000000          0.3889
C92        C    1.0000000000    0.5000000000    0.6056800882          0.3794
Zn93      Zn    0.5330714846    1.0330714846    0.0330714846          1.4972
Zn94      Zn    0.4669285154    0.9669285154    0.0330714846          1.4936
Zn95      Zn    0.4669285154    1.0330714846   -0.0330714846          1.4911
Zn96      Zn    0.5330714846    0.9669285154   -0.0330714846          1.4948
O97        O    0.5000000000    1.0000000000    0.0000000000         -2.2333
O98        O    0.5243051224    1.0243051224    0.0883892354         -1.1396
O99        O    0.4116107646    0.9756948776    0.0243051224         -1.1378
O100       O    0.4756948776    1.0883892354   -0.0243051224         -1.1329
O101       O    0.4756948776    0.9756948776    0.0883892354         -1.1397
O102       O    0.5243051224    1.0883892354    0.0243051224         -1.1357
O103       O    0.4116107646    1.0243051224   -0.0243051224         -1.1416
O104       O    0.5243051224    0.9756948776   -0.0883892354         -1.1355
O105       O    0.4756948776    0.9116107646    0.0243051224          -1.143
O106       O    0.4756948776    1.0243051224   -0.0883892354         -1.1369
O107       O    0.5243051224    0.9116107646   -0.0243051224         -1.1416
O108       O    0.5883892354    0.9756948776   -0.0243051224         -1.1407
O109       O    0.5883892354    1.0243051224    0.0243051224         -1.1386
C110       C    0.5000000000    1.0000000000    0.1056800882          0.3793
C111       C    0.3943199118    1.0000000000    0.0000000000          0.3842
C112       C    0.5000000000    1.1056800882    0.0000000000          0.3738
C113       C    0.5000000000    1.0000000000   -0.1056800882          0.3776
C114       C    0.5000000000    0.8943199118    0.0000000000          0.3889
C115       C    0.6056800882    1.0000000000    0.0000000000          0.3794
Zn116     Zn    0.4669285154    1.0330714846    0.5330714846          1.4972
Zn117     Zn    0.4669285154    0.9669285154    0.4669285154          1.4936
Zn118     Zn    0.5330714846    1.0330714846    0.4669285154          1.4911
Zn119     Zn    0.5330714846    0.9669285154    0.5330714846          1.4948
O120       O    0.5000000000    1.0000000000    0.5000000000         -2.2333
O121       O    0.4116107646    1.0243051224    0.5243051224         -1.1396
O122       O    0.4756948776    0.9756948776    0.4116107646         -1.1378
O123       O    0.5243051224    1.0883892354    0.4756948776         -1.1329
O124       O    0.4116107646    0.9756948776    0.4756948776         -1.1397
O125       O    0.4756948776    1.0883892354    0.5243051224         -1.1357
O126       O    0.5243051224    1.0243051224    0.4116107646         -1.1416
O127       O    0.5883892354    0.9756948776    0.5243051224         -1.1355
O128       O    0.4756948776    0.9116107646    0.4756948776          -1.143
O129       O    0.5883892354    1.0243051224    0.4756948776         -1.1369
O130       O    0.5243051224    0.9116107646    0.5243051224         -1.1416
O131       O    0.5243051224    0.9756948776    0.5883892354         -1.1407
O132       O    0.4756948776    1.0243051224    0.5883892354         -1.1386
C133       C    0.3943199118    1.0000000000    0.5000000000          0.3793
C134       C    0.5000000000    1.0000000000    0.3943199118          0.3842
C135       C    0.5000000000    1.1056800882    0.5000000000          0.3738
C136       C    0.6056800882    1.0000000000    0.5000000000          0.3776
C137       C    0.5000000000    0.8943199118    0.5000000000          0.3889
C138       C    0.5000000000    1.0000000000    0.6056800882          0.3794
Zn139     Zn    0.4669285154    0.5330714846    0.0330714846          1.4972
Zn140     Zn    0.4669285154    0.4669285154   -0.0330714846          1.4936
Zn141     Zn    0.5330714846    0.5330714846   -0.0330714846          1.4911
Zn142     Zn    0.5330714846    0.4669285154    0.0330714846          1.4948
O143       O    0.5000000000    0.5000000000    0.0000000000         -2.2333
O144       O    0.4116107646    0.5243051224    0.0243051224         -1.1396
O145       O    0.4756948776    0.4756948776   -0.0883892354         -1.1378
O146       O    0.5243051224    0.5883892354   -0.0243051224         -1.1329
O147       O    0.4116107646    0.4756948776   -0.0243051224         -1.1397
O148       O    0.4756948776    0.5883892354    0.0243051224         -1.1357
O149       O    0.5243051224    0.5243051224   -0.0883892354         -1.1416
O150       O    0.5883892354    0.4756948776    0.0243051224         -1.1355
O151       O    0.4756948776    0.4116107646   -0.0243051224          -1.143
O152       O    0.5883892354    0.5243051224   -0.0243051224         -1.1369
O153       O    0.5243051224    0.4116107646    0.0243051224         -1.1416
O154       O    0.5243051224    0.4756948776    0.0883892354         -1.1407
O155       O    0.4756948776    0.5243051224    0.0883892354         -1.1386
C156       C    0.3943199118    0.5000000000    0.0000000000          0.3793
C157       C    0.5000000000    0.5000000000   -0.1056800882          0.3842
C158       C    0.5000000000    0.6056800882    0.0000000000          0.3738
C159       C    0.6056800882    0.5000000000    0.0000000000          0.3776
C160       C    0.5000000000    0.3943199118    0.0000000000          0.3889
C161       C    0.5000000000    0.5000000000    0.1056800882          0.3794
Zn162     Zn    0.4669285154    0.5330714846    0.4669285154          1.4972
Zn163     Zn    0.4669285154    0.4669285154    0.5330714846          1.4936
Zn164     Zn    0.5330714846    0.4669285154    0.4669285154          1.4911
Zn165     Zn    0.5330714846    0.5330714846    0.5330714846          1.4948
O166       O    0.5000000000    0.5000000000    0.5000000000         -2.2333
O167       O    0.4116107646    0.5243051224    0.4756948776         -1.1396
O168       O    0.4756948776    0.4116107646    0.5243051224         -1.1378
O169       O    0.5243051224    0.4756948776    0.4116107646         -1.1329
O170       O    0.4116107646    0.4756948776    0.5243051224         -1.1397
O171       O    0.4756948776    0.5243051224    0.4116107646         -1.1357
O172       O    0.5243051224    0.4116107646    0.4756948776         -1.1416
O173       O    0.5883892354    0.5243051224    0.5243051224         -1.1355
O174       O    0.4756948776    0.4756948776    0.5883892354          -1.143
O175       O    0.5883892354    0.4756948776    0.4756948776         -1.1369
O176       O    0.5243051224    0.5243051224    0.5883892354         -1.1416
O177       O    0.5243051224    0.5883892354    0.5243051224         -1.1407
O178       O    0.4756948776    0.5883892354    0.4756948776         -1.1386
C179       C    0.3943199118    0.5000000000    0.5000000000          0.3793
C180       C    0.5000000000    0.3943199118    0.5000000000          0.3842
C181       C    0.5000000000    0.5000000000    0.3943199118          0.3738
C182       C    0.6056800882    0.5000000000    0.5000000000          0.3776
C183       C    0.5000000000    0.5000000000    0.6056800882          0.3889
C184       C    0.5000000000    0.6056800882    0.5000000000          0.3794
C852       C    0.5000000000    0.5000000000   -0.1511047103         -0.3843
C853       C    0.5316216976    0.4877326895   -0.1728913447         -0.3749
C854       C    0.5310273779    0.4885985659   -0.2124560985         -0.3791
C855       C    0.5003362452    0.5015425443   -0.2336450643         -0.3928
C856       C    0.4683763524    0.5117212828   -0.2122498858          0.5995
C857       C    0.4680687160    0.5108575339   -0.1721936630          0.6038
C858       C    0.5042958944    0.5098142866   -0.2794913362          0.5959
H859       H    0.5575771858    0.4790862973   -0.2273381408         -0.3716
C860       C    0.6011793036    0.4975734527   -0.1634841314         -0.3817
F861       F    0.4353261015    0.5226709380   -0.1530230281          0.5945
C862       C    0.4082551850    0.4928877674   -0.2411885558         -0.3873
H863       H    0.6224975621    0.4914733056   -0.1400738643          -0.374
H864       H    0.5937051205    0.5289658017   -0.1630663385          0.5905
H865       H    0.6141048547    0.4896894429   -0.1919329992          -0.377
O866       O    0.5660632819    0.4740165900   -0.1565894970         -0.3609
H867       H    0.3812347327    0.5055762153   -0.2532764357          0.6001
H868       H    0.4217094916    0.4733584143   -0.2630696243         -0.3717
H869       H    0.4011462295    0.4760573856   -0.2145678875         -0.3702
O870       O    0.4353553317    0.5244858571   -0.2315340925          0.5861
O871       O    0.4869433324    0.4838049035   -0.3099730251          -0.384
C872       C    0.5436477538    0.5089899798   -0.3408557446          0.5919
C873       C    0.5467547613    0.5144514869   -0.2958741176          0.5911
H874       H    0.5665996329    0.4915056284   -0.2852423017         -0.3875
H875       H    0.5531834521    0.5353348605   -0.3567695296          0.5675
H876       H    0.5619831995    0.4841419789   -0.3501737724         -0.3867
H877       H    0.5591702612    0.5431878731   -0.2883072004          0.5666
H878       H    0.4846137903    0.5280150888   -0.3530913784          0.5732
C879       C    0.5000000000    0.5000000000   -0.3488952897          0.5985
H880       H    0.4899313871    0.5383773969   -0.2840129447          0.5701
C823       C    0.5000000000    0.5000000000    0.3488952897         -0.3843
C824       C    0.4683783024    0.5122673105    0.3271086553         -0.3749
C825       C    0.4689726221    0.5114014341    0.2875439015         -0.3791
C826       C    0.4996637548    0.4984574557    0.2663549357         -0.3928
C827       C    0.5316236476    0.4882787172    0.2877501142          0.5995
C828       C    0.5319312840    0.4891424661    0.3278063370          0.6038
C829       C    0.4957041056    0.4901857134    0.2205086638          0.5959
H830       H    0.4424228142    0.5209137027    0.2726618592         -0.3716
C831       C    0.3988206964    0.5024265473    0.3365158686         -0.3817
F832       F    0.5646738985    0.4773290620    0.3469769719          0.5945
C833       C    0.5917448150    0.5071122326    0.2588114442         -0.3873
H834       H    0.3775024379    0.5085266944    0.3599261357          -0.374
H835       H    0.4062948795    0.4710341983    0.3369336615          0.5905
H836       H    0.3858951453    0.5103105571    0.3080670008          -0.377
O837       O    0.4339367181    0.5259834100    0.3434105030         -0.3609
H838       H    0.6187652673    0.4944237847    0.2467235643          0.6001
H839       H    0.5782905084    0.5266415857    0.2369303757         -0.3717
H840       H    0.5988537705    0.5239426144    0.2854321125         -0.3702
O841       O    0.5646446683    0.4755141429    0.2684659075          0.5861
O842       O    0.5130566676    0.5161950965    0.1900269749          -0.384
C843       C    0.4563522462    0.4910100202    0.1591442554          0.5919
C844       C    0.4532452387    0.4855485131    0.2041258824          0.5911
H845       H    0.4334003671    0.5084943716    0.2147576983         -0.3875
H846       H    0.4468165479    0.4646651395    0.1432304704          0.5675
H847       H    0.4380168005    0.5158580211    0.1498262276         -0.3867
H848       H    0.4408297388    0.4568121269    0.2116927996          0.5666
H849       H    0.5153862097    0.4719849112    0.1469086216          0.5732
C850       C    0.5000000000    0.5000000000    0.1511047103          0.5985
H851       H    0.5100686129    0.4616226031    0.2159870553          0.5701
C794       C    0.5000000000    0.8488952897    0.5000000000         -0.3843
C795       C    0.4874812211    0.8271086553    0.5315229891         -0.3749
C796       C    0.4883518037    0.7875439015    0.5309355847         -0.3791
C797       C    0.5015398173    0.7663549357    0.5003485205         -0.3928
C798       C    0.5119727840    0.7877501142    0.4684707120          0.5995
C799       C    0.5111115127    0.8278063370    0.4681562059          0.6038
C800       C    0.5097797598    0.7205086638    0.5043739260          0.5959
H801       H    0.4786283755    0.7726618592    0.5574087881         -0.3716
C802       C    0.4967676665    0.8365158686    0.6011567676         -0.3817
F803       F    0.5231853273    0.8469769719    0.4355087202          0.5945
C804       C    0.4936187133    0.7588114442    0.4082014482         -0.3873
H805       H    0.4904979193    0.8599261357    0.6224257640          -0.374
H806       H    0.5282185495    0.8369336615    0.5939328524          0.5905
H807       H    0.4887809586    0.8080670008    0.6140191149          -0.377
O808       O    0.4734912397    0.8434105030    0.5658542363         -0.3609
H809       H    0.5065219686    0.7467235643    0.3812829127          0.6001
H810       H    0.4739828200    0.7369303757    0.4214997825         -0.3717
H811       H    0.4768454860    0.7854321125    0.4009586692         -0.3702
O812       O    0.5249999561    0.7684659075    0.4355524048          0.5861
O813       O    0.4839094097    0.6900269749    0.4868147574          -0.384
C814       C    0.5086420532    0.6591442554    0.5437179719          0.5919
C815       C    0.5140786407    0.7041258824    0.5468683801          0.5911
H816       H    0.4909754515    0.7147576983    0.5665298652         -0.3875
H817       H    0.5349101493    0.6432304704    0.5534631969          0.5675
H818       H    0.4836488041    0.6498262276    0.5618549290         -0.3867
H819       H    0.5427152296    0.7116927996    0.5595123630          0.5666
H820       H    0.5281367468    0.6469086216    0.4848374103          0.5732
C821       C    0.5000000000    0.6511047103    0.5000000000          0.5985
H822       H    0.5384563731    0.7159870553    0.4902373711          0.5701
C765       C    0.5000000000    1.1511047103    0.5000000000         -0.3843
C766       C    0.4683783024    1.1728913447    0.5122673105         -0.3749
C767       C    0.4689726221    1.2124560985    0.5114014341         -0.3791
C768       C    0.4996637548    1.2336450643    0.4984574557         -0.3928
C769       C    0.5316236476    1.2122498858    0.4882787172          0.5995
C770       C    0.5319312840    1.1721936630    0.4891424661          0.6038
C771       C    0.4957041056    1.2794913362    0.4901857134          0.5959
H772       H    0.4424228142    1.2273381408    0.5209137027         -0.3716
C773       C    0.3988206964    1.1634841314    0.5024265473         -0.3817
F774       F    0.5646738985    1.1530230281    0.4773290620          0.5945
C775       C    0.5917448150    1.2411885558    0.5071122326         -0.3873
H776       H    0.3775024379    1.1400738643    0.5085266944          -0.374
H777       H    0.4062948795    1.1630663385    0.4710341983          0.5905
H778       H    0.3858951453    1.1919329992    0.5103105571          -0.377
O779       O    0.4339367181    1.1565894970    0.5259834100         -0.3609
H780       H    0.6187652673    1.2532764357    0.4944237847          0.6001
H781       H    0.5782905084    1.2630696243    0.5266415857         -0.3717
H782       H    0.5988537705    1.2145678875    0.5239426144         -0.3702
O783       O    0.5646446683    1.2315340925    0.4755141429          0.5861
O784       O    0.5130566676    1.3099730251    0.5161950965          -0.384
C785       C    0.4563522462    1.3408557446    0.4910100202          0.5919
C786       C    0.4532452387    1.2958741176    0.4855485131          0.5911
H787       H    0.4334003671    1.2852423017    0.5084943716         -0.3875
H788       H    0.4468165479    1.3567695296    0.4646651395          0.5675
H789       H    0.4380168005    1.3501737724    0.5158580211         -0.3867
H790       H    0.4408297388    1.2883072004    0.4568121269          0.5666
H791       H    0.5153862097    1.3530913784    0.4719849112          0.5732
C792       C    0.5000000000    1.3488952897    0.5000000000          0.5985
H793       H    0.5100686129    1.2840129447    0.4616226031          0.5701
C736       C    0.5000000000    0.6511047103    0.0000000000         -0.3843
C737       C    0.5049124224    0.6728913447    0.0335601962         -0.3749
C738       C    0.5042007530    0.7124560985    0.0327878720         -0.3791
C739       C    0.4984213140    0.7336450643   -0.0000159431         -0.3928
C740       C    0.4956203106    0.7122498858   -0.0334404228          0.5995
C741       C    0.4965308938    0.6721936630   -0.0335478500          0.6038
C742       C    0.4894752052    0.7794913362    0.0020009064          0.5959
H743       H    0.5075576037    0.7273381408    0.0607897846         -0.3716
C744       C    0.4798191852    0.6634841314    0.0991759766         -0.3817
F745       F    0.4923107450    0.6530230281   -0.0680996324          0.5945
C746       C    0.5273774122    0.7411885558   -0.0878531288         -0.3873
H747       H    0.4810154839    0.6400738643    0.1213175394          -0.374
H748       H    0.4508816780    0.6630663385    0.0848943916          0.5905
H749       H    0.4846246870    0.6919329992    0.1135333661          -0.377
O750       O    0.5106088343    0.6565894970    0.0701922178         -0.3609
H751       H    0.5210291204    0.7532764357   -0.1170216176          0.6001
H752       H    0.5434176219    0.7630696243   -0.0703852819         -0.3717
H753       H    0.5453687399    0.7145678875   -0.0910329291         -0.3702
O754       O    0.4905349466    0.7315340925   -0.0684755657          0.5861
O755       O    0.5186973778    0.8099730251   -0.0091195275          -0.384
C756       C    0.4815097912    0.8408557446    0.0405469891          0.5919
C757       C    0.4754932562    0.7958741176    0.0423588561          0.5911
H758       H    0.4934400215    0.7852423017    0.0668179027         -0.3875
H759       H    0.4537024322    0.8567695296    0.0439723454          0.5675
H760       H    0.5016472253    0.8501737724    0.0639584279         -0.3867
H761       H    0.4447128013    0.7883072004    0.0480586918          0.5666
H762       H    0.4761179164    0.8530913784   -0.0212420981          0.5732
C763       C    0.5000000000    0.8488952897    0.0000000000          0.5985
H764       H    0.4648312080    0.7840129447   -0.0183672977          0.5701
C707       C    0.5000000000    1.1511047103    0.0000000000         -0.3843
C708       C    0.5277807378    1.1728913447    0.0194589124         -0.3749
C709       C    0.5267305932    1.2124560985    0.0194464975         -0.3791
C710       C    0.4989049748    1.2336450643    0.0011372878         -0.3928
C711       C    0.4726719841    1.2122498858   -0.0197641875          0.5995
C712       C    0.4732187689    1.1721936630   -0.0205002097          0.6038
C713       C    0.4942323098    1.2794913362    0.0090282158          0.5959
H714       H    0.5494010456    1.2273381408    0.0362222580         -0.3716
C715       C    0.5582840877    1.1634841314    0.0827411913         -0.3817
F716       F    0.4451919158    1.1530230281   -0.0411431462          0.5945
C717       C    0.4548903053    1.2411885558   -0.0802048027         -0.3873
H718       H    0.5752093632    1.1400738643    0.0970665180          -0.374
H719       H    0.5280372388    1.1630663385    0.0939871296          0.5905
H720       H    0.5720246265    1.1919329992    0.0890992628          -0.377
O721       O    0.5583337540    1.1565894970    0.0404557529         -0.3609
H722       H    0.4293183816    1.2532764357   -0.0956053959          0.6001
H723       H    0.4786033971    1.2630696243   -0.0798834350         -0.3717
H724       H    0.4649247211    1.2145678875   -0.0954727267         -0.3702
O725       O    0.4436997827    1.2315340925   -0.0401095483          0.5861
O726       O    0.5061988124    1.3099730251   -0.0198578056          -0.384
C727       C    0.5168015716    1.3408557446    0.0412753357          0.5919
C728       C    0.5139903402    1.2958741176    0.0468948138          0.5911
H729       H    0.5440967987    1.2852423017    0.0506274411         -0.3875
H730       H    0.5002091568    1.3567695296    0.0638512976          0.5675
H731       H    0.5476494953    1.3501737724    0.0426956608         -0.3867
H732       H    0.4970118351    1.2883072004    0.0731941464          0.5666
H733       H    0.4681600092    1.3530913784    0.0027920664          0.5732
C734       C    0.5000000000    1.3488952897    0.0000000000          0.5985
H735       H    0.4625050401    1.2840129447    0.0129741874          0.5701
C678       C    0.5000000000    1.0000000000   -0.3488952897         -0.3843
C679       C    0.4877326895    1.0316216976   -0.3271086553         -0.3749
C680       C    0.4885985659    1.0310273779   -0.2875439015         -0.3791
C681       C    0.5015425443    1.0003362452   -0.2663549357         -0.3928
C682       C    0.5117212828    0.9683763524   -0.2877501142          0.5995
C683       C    0.5108575339    0.9680687160   -0.3278063370          0.6038
C684       C    0.5098142866    1.0042958944   -0.2205086638          0.5959
H685       H    0.4790862973    1.0575771858   -0.2726618592         -0.3716
C686       C    0.4975734527    1.1011793036   -0.3365158686         -0.3817
F687       F    0.5226709380    0.9353261015   -0.3469769719          0.5945
C688       C    0.4928877674    0.9082551850   -0.2588114442         -0.3873
H689       H    0.4914733056    1.1224975621   -0.3599261357          -0.374
H690       H    0.5289658017    1.0937051205   -0.3369336615          0.5905
H691       H    0.4896894429    1.1141048547   -0.3080670008          -0.377
O692       O    0.4740165900    1.0660632819   -0.3434105030         -0.3609
H693       H    0.5055762153    0.8812347327   -0.2467235643          0.6001
H694       H    0.4733584143    0.9217094916   -0.2369303757         -0.3717
H695       H    0.4760573856    0.9011462295   -0.2854321125         -0.3702
O696       O    0.5244858571    0.9353553317   -0.2684659075          0.5861
O697       O    0.4838049035    0.9869433324   -0.1900269749          -0.384
C698       C    0.5089899798    1.0436477538   -0.1591442554          0.5919
C699       C    0.5144514869    1.0467547613   -0.2041258824          0.5911
H700       H    0.4915056284    1.0665996329   -0.2147576983         -0.3875
H701       H    0.5353348605    1.0531834521   -0.1432304704          0.5675
H702       H    0.4841419789    1.0619831995   -0.1498262276         -0.3867
H703       H    0.5431878731    1.0591702612   -0.2116927996          0.5666
H704       H    0.5280150888    0.9846137903   -0.1469086216          0.5732
C705       C    0.5000000000    1.0000000000   -0.1511047103          0.5985
H706       H    0.5383773969    0.9899313871   -0.2159870553          0.5701
C649       C    0.5000000000    1.0000000000    0.3488952897         -0.3843
C650       C    0.4683783024    1.0122673105    0.3271086553         -0.3749
C651       C    0.4689726221    1.0114014341    0.2875439015         -0.3791
C652       C    0.4996637548    0.9984574557    0.2663549357         -0.3928
C653       C    0.5316236476    0.9882787172    0.2877501142          0.5995
C654       C    0.5319312840    0.9891424661    0.3278063370          0.6038
C655       C    0.4957041056    0.9901857134    0.2205086638          0.5959
H656       H    0.4424228142    1.0209137027    0.2726618592         -0.3716
C657       C    0.3988206964    1.0024265473    0.3365158686         -0.3817
F658       F    0.5646738985    0.9773290620    0.3469769719          0.5945
C659       C    0.5917448150    1.0071122326    0.2588114442         -0.3873
H660       H    0.3775024379    1.0085266944    0.3599261357          -0.374
H661       H    0.4062948795    0.9710341983    0.3369336615          0.5905
H662       H    0.3858951453    1.0103105571    0.3080670008          -0.377
O663       O    0.4339367181    1.0259834100    0.3434105030         -0.3609
H664       H    0.6187652673    0.9944237847    0.2467235643          0.6001
H665       H    0.5782905084    1.0266415857    0.2369303757         -0.3717
H666       H    0.5988537705    1.0239426144    0.2854321125         -0.3702
O667       O    0.5646446683    0.9755141429    0.2684659075          0.5861
O668       O    0.5130566676    1.0161950965    0.1900269749          -0.384
C669       C    0.4563522462    0.9910100202    0.1591442554          0.5919
C670       C    0.4532452387    0.9855485131    0.2041258824          0.5911
H671       H    0.4334003671    1.0084943716    0.2147576983         -0.3875
H672       H    0.4468165479    0.9646651395    0.1432304704          0.5675
H673       H    0.4380168005    1.0158580211    0.1498262276         -0.3867
H674       H    0.4408297388    0.9568121269    0.2116927996          0.5666
H675       H    0.5153862097    0.9719849112    0.1469086216          0.5732
C676       C    0.5000000000    1.0000000000    0.1511047103          0.5985
H677       H    0.5100686129    0.9616226031    0.2159870553          0.5701
C620       C    0.8488952897    0.5000000000    0.5000000000         -0.3843
C621       C    0.8271086553    0.4894698004    0.5322417983         -0.3749
C622       C    0.7875439015    0.4891760109    0.5312335099         -0.3791
C623       C    0.7663549357    0.4985932250    0.4992834194         -0.3928
C624       C    0.7877501142    0.5109540310    0.4681024647          0.5995
C625       C    0.8278063370    0.5118173378    0.4684113396          0.6038
C626       C    0.7205086638    0.4896838852    0.4971098952          0.5959
H627       H    0.7726618592    0.4797253302    0.5578053029         -0.3716
C628       C    0.8365158686    0.4378061970    0.5798440385         -0.3817
F629       F    0.8469769719    0.5234086579    0.4355894472          0.5945
C630       C    0.7588114442    0.5636019213    0.4334981914         -0.3873
H631       H    0.8599261357    0.4290275949    0.6002061622          -0.374
H632       H    0.8369336615    0.4182432086    0.5541802025          0.5905
H633       H    0.8080670008    0.4357228945    0.5948402824          -0.377
O634       O    0.8434105030    0.4782751927    0.5675834858         -0.3609
H635       H    0.7467235643    0.5708924431    0.4045508281          0.6001
H636       H    0.7369303757    0.5701966638    0.4562780811         -0.3717
H637       H    0.7854321125    0.5811294943    0.4386540801         -0.3702
O638       O    0.7684659075    0.5219854966    0.4344627718          0.5861
O639       O    0.6900269749    0.5208022860    0.5001503796          -0.384
C640       C    0.6591442554    0.4654022791    0.5280881444          0.5919
C641       C    0.7041258824    0.4592078483    0.5270343030          0.5911
H642       H    0.7147576983    0.4643999581    0.5569236547         -0.3875
H643       H    0.6432304704    0.4389742520    0.5187853673          0.5675
H644       H    0.6498262276    0.4730223908    0.5580138126         -0.3867
H645       H    0.7116927996    0.4291052873    0.5184459183          0.5666
H646       H    0.6469086216    0.4880611253    0.4703513252          0.5732
C647       C    0.6511047103    0.5000000000    0.5000000000          0.5985
H648       H    0.7159870553    0.4766738776    0.4679049292          0.5701
C591       C    1.1511047103    0.5000000000    0.5000000000         -0.3843
C592       C    1.1728913447    0.5322417983    0.4894698004         -0.3749
C593       C    1.2124560985    0.5312335099    0.4891760109         -0.3791
C594       C    1.2336450643    0.4992834194    0.4985932250         -0.3928
C595       C    1.2122498858    0.4681024647    0.5109540310          0.5995
C596       C    1.1721936630    0.4684113396    0.5118173378          0.6038
C597       C    1.2794913362    0.4971098952    0.4896838852          0.5959
H598       H    1.2273381408    0.5578053029    0.4797253302         -0.3716
C599       C    1.1634841314    0.5798440385    0.4378061970         -0.3817
F600       F    1.1530230281    0.4355894472    0.5234086579          0.5945
C601       C    1.2411885558    0.4334981914    0.5636019213         -0.3873
H602       H    1.1400738643    0.6002061622    0.4290275949          -0.374
H603       H    1.1630663385    0.5541802025    0.4182432086          0.5905
H604       H    1.1919329992    0.5948402824    0.4357228945          -0.377
O605       O    1.1565894970    0.5675834858    0.4782751927         -0.3609
H606       H    1.2532764357    0.4045508281    0.5708924431          0.6001
H607       H    1.2630696243    0.4562780811    0.5701966638         -0.3717
H608       H    1.2145678875    0.4386540801    0.5811294943         -0.3702
O609       O    1.2315340925    0.4344627718    0.5219854966          0.5861
O610       O    1.3099730251    0.5001503796    0.5208022860          -0.384
C611       C    1.3408557446    0.5280881444    0.4654022791          0.5919
C612       C    1.2958741176    0.5270343030    0.4592078483          0.5911
H613       H    1.2852423017    0.5569236547    0.4643999581         -0.3875
H614       H    1.3567695296    0.5187853673    0.4389742520          0.5675
H615       H    1.3501737724    0.5580138126    0.4730223908         -0.3867
H616       H    1.2883072004    0.5184459183    0.4291052873          0.5666
H617       H    1.3530913784    0.4703513252    0.4880611253          0.5732
C618       C    1.3488952897    0.5000000000    0.5000000000          0.5985
H619       H    1.2840129447    0.4679049292    0.4766738776          0.5701
C562       C    0.8488952897    0.5000000000    0.0000000000         -0.3843
C563       C    0.8271086553    0.5240001009   -0.0239669318         -0.3749
C564       C    0.7875439015    0.5238049707   -0.0229350005         -0.3791
C565       C    0.7663549357    0.5009291826    0.0012763712         -0.3928
C566       C    0.7877501142    0.4757781412    0.0234679593          0.5995
C567       C    0.8278063370    0.4751486031    0.0228013379          0.6038
C568       C    0.7205086638    0.5078856557    0.0072519904          0.5959
H569       H    0.7726618592    0.5442728650   -0.0423370844         -0.3716
C570       C    0.8365158686    0.5916279446   -0.0429820821         -0.3817
F571       F    0.8469769719    0.4499397092    0.0468044000          0.5945
C572       C    0.7588114442    0.4131642792    0.0304508216         -0.3873
H573       H    0.8599261357    0.6086822134   -0.0571535976          -0.374
H574       H    0.8369336615    0.5974338550   -0.0112388245          0.5905
H575       H    0.8080670008    0.6002820448   -0.0554052069          -0.377
O576       O    0.8434105030    0.5499974752   -0.0503959054         -0.3609
H577       H    0.7467235643    0.3935451799    0.0529495436          0.6001
H578       H    0.7369303757    0.4176108786    0.0071561494         -0.3717
H579       H    0.7854321125    0.3998774290    0.0179105420         -0.3702
O580       O    0.7684659075    0.4506976219    0.0484537496          0.5861
O581       O    0.6900269749    0.4815253703   -0.0095627285          -0.384
C582       C    0.6591442554    0.5435708105   -0.0093557802          0.5919
C583       C    0.7041258824    0.5486147604   -0.0056087650          0.5911
H584       H    0.7147576983    0.5575340214   -0.0346049394         -0.3875
H585       H    0.6432304704    0.5629117815    0.0109151132          0.5675
H586       H    0.6498262276    0.5503422540   -0.0394848239         -0.3867
H587       H    0.7116927996    0.5715549459    0.0156908224          0.5666
H588       H    0.6469086216    0.4972037732    0.0318396257          0.5732
C589       C    0.6511047103    0.5000000000    0.0000000000          0.5985
H590       H    0.7159870553    0.5062453298    0.0391815953          0.5701
C533       C    1.1511047103    0.5000000000    0.0000000000         -0.3843
C534       C    1.1728913447    0.5334747112   -0.0054646477         -0.3749
C535       C    1.2124560985    0.5325233578   -0.0059094901         -0.3791
C536       C    1.2336450643    0.4995074772   -0.0014999750         -0.3928
C537       C    1.2122498858    0.4668005315    0.0059362318          0.5995
C538       C    1.1721936630    0.4669734532    0.0068366764          0.6038
C539       C    1.2794913362    0.4987250136   -0.0106371679          0.5959
H540       H    1.2273381408    0.5602296041   -0.0111763177         -0.3716
C541       C    1.1634841314    0.5884322357   -0.0492227520         -0.3817
F542       F    1.1530230281    0.4327628805    0.0132610083          0.5945
C543       C    1.2411885558    0.4245365833    0.0526589753         -0.3873
H544       H    1.1400738643    0.6098991694   -0.0547770918          -0.374
H545       H    1.1630663385    0.5660696579   -0.0724877065          0.5905
H546       H    1.1919329992    0.6035706010   -0.0489832222          -0.377
O547       O    1.1565894970    0.5701145150   -0.0111107870         -0.3609
H548       H    1.2532764357    0.3948138808    0.0554270983          0.6001
H549       H    1.2630696243    0.4460367079    0.0626669044         -0.3717
H550       H    1.2145678875    0.4269454089    0.0707696507         -0.3702
O551       O    1.2315340925    0.4318676186    0.0116819922          0.5861
O552       O    1.3099730251    0.4969605866    0.0205795939          -0.384
C553       C    1.3408557446    0.5330585488   -0.0298844190          0.5919
C554       C    1.2958741176    0.5329664726   -0.0361671793          0.5911
H555       H    1.2852423017    0.5617070328   -0.0264557659         -0.3875
H556       H    1.3567695296    0.5279158450   -0.0574259310          0.5675
H557       H    1.3501737724    0.5614628974   -0.0177681201         -0.3867
H558       H    1.2883072004    0.5290928562   -0.0672303348          0.5666
H559       H    1.3530913784    0.4725312368   -0.0163415940          0.5732
C560       C    1.3488952897    0.5000000000    0.0000000000          0.5985
H561       H    1.2840129447    0.4718588721   -0.0279692416          0.5701
C504       C    1.0000000000    0.5000000000   -0.1511047103         -0.3843
C505       C    1.0316216976    0.4877326895   -0.1728913447         -0.3749
C506       C    1.0310273779    0.4885985659   -0.2124560985         -0.3791
C507       C    1.0003362452    0.5015425443   -0.2336450643         -0.3928
C508       C    0.9683763524    0.5117212828   -0.2122498858          0.5995
C509       C    0.9680687160    0.5108575339   -0.1721936630          0.6038
C510       C    1.0042958944    0.5098142866   -0.2794913362          0.5959
H511       H    1.0575771858    0.4790862973   -0.2273381408         -0.3716
C512       C    1.1011793036    0.4975734527   -0.1634841314         -0.3817
F513       F    0.9353261015    0.5226709380   -0.1530230281          0.5945
C514       C    0.9082551850    0.4928877674   -0.2411885558         -0.3873
H515       H    1.1224975621    0.4914733056   -0.1400738643          -0.374
H516       H    1.0937051205    0.5289658017   -0.1630663385          0.5905
H517       H    1.1141048547    0.4896894429   -0.1919329992          -0.377
O518       O    1.0660632819    0.4740165900   -0.1565894970         -0.3609
H519       H    0.8812347327    0.5055762153   -0.2532764357          0.6001
H520       H    0.9217094916    0.4733584143   -0.2630696243         -0.3717
H521       H    0.9011462295    0.4760573856   -0.2145678875         -0.3702
O522       O    0.9353553317    0.5244858571   -0.2315340925          0.5861
O523       O    0.9869433324    0.4838049035   -0.3099730251          -0.384
C524       C    1.0436477538    0.5089899798   -0.3408557446          0.5919
C525       C    1.0467547613    0.5144514869   -0.2958741176          0.5911
H526       H    1.0665996329    0.4915056284   -0.2852423017         -0.3875
H527       H    1.0531834521    0.5353348605   -0.3567695296          0.5675
H528       H    1.0619831995    0.4841419789   -0.3501737724         -0.3867
H529       H    1.0591702612    0.5431878731   -0.2883072004          0.5666
H530       H    0.9846137903    0.5280150888   -0.3530913784          0.5732
C531       C    1.0000000000    0.5000000000   -0.3488952897 0.6001000000000001
H532       H    0.9899313871    0.5383773969   -0.2840129447          0.5701
C475       C    1.0000000000    0.5000000000    0.1511047103         -0.3843
C476       C    0.9685959392    0.4871858037    0.1728913447         -0.3749
C477       C    0.9691751437    0.4880618630    0.2124560985         -0.3791
C478       C    0.9996370376    0.5015364771    0.2336450643         -0.3928
C479       C    1.0314154858    0.5122682847    0.2122498858          0.5995
C480       C    1.0317380646    0.5114100042    0.1721936630          0.6038
C481       C    0.9955344446    0.5097382620    0.2794913362          0.5959
H482       H    0.9427944005    0.4780903065    0.2273381408         -0.3716
C483       C    0.8988780395    0.4958180484    0.1634841314         -0.3817
F484       F    1.0642707502    0.5237898138    0.1530230281          0.5945
C485       C    1.0918544195    0.4944808909    0.2411885558         -0.3873
H486       H    0.8776688473    0.4893488830    0.1400738643          -0.374
H487       H    0.9058063441    0.5273353704    0.1630663385          0.5905
H488       H    0.8860912463    0.4877109280    0.1919329992          -0.377
O489       O    0.9343975571    0.4728741029    0.1565894970         -0.3609
H490       H    1.1186506198    0.5076363155    0.2532764357          0.6001
H491       H    1.0787410326    0.4747210051    0.2630696243         -0.3717
H492       H    1.0992543630    0.4777764053    0.2145678875         -0.3702
O493       O    1.0642100300    0.5256039524    0.2315340925          0.5861
O494       O    1.0133357359    0.4840339151    0.3099730251          -0.384
C495       C    0.9562028149    0.5082312044    0.3408557446          0.5919
C496       C    0.9530015014    0.5136379730    0.2958741176          0.5911
H497       H    0.9335577987    0.4903512006    0.2852423017         -0.3875
H498       H    0.9462113883    0.5344066447    0.3567695296          0.5675
H499       H    0.9383013187    0.4830687690    0.3501737724         -0.3867
H500       H    0.9400892070    0.5421545855    0.2883072004          0.5666
H501       H    1.0148977456    0.5282778681    0.3530913784          0.5732
C502       C    1.0000000000    0.5000000000    0.3488952897          0.5985
H503       H    1.0094011318    0.5385463393    0.2840129447          0.5701
C446       C    1.0000000000   -0.3488952897    0.5000000000         -0.3843
C447       C    0.9683783024   -0.3271086553    0.5122673105         -0.3749
C448       C    0.9689726221   -0.2875439015    0.5114014341         -0.3791
C449       C    0.9996637548   -0.2663549357    0.4984574557         -0.3928
C450       C    1.0316236476   -0.2877501142    0.4882787172          0.5995
C451       C    1.0319312840   -0.3278063370    0.4891424661          0.6038
C452       C    0.9957041056   -0.2205086638    0.4901857134          0.5959
H453       H    0.9424228142   -0.2726618592    0.5209137027         -0.3716
C454       C    0.8988206964   -0.3365158686    0.5024265473         -0.3817
F455       F    1.0646738985   -0.3469769719    0.4773290620          0.5945
C456       C    1.0917448150   -0.2588114442    0.5071122326         -0.3873
H457       H    0.8775024379   -0.3599261357    0.5085266944          -0.374
H458       H    0.9062948795   -0.3369336615    0.4710341983          0.5905
H459       H    0.8858951453   -0.3080670008    0.5103105571          -0.377
O460       O    0.9339367181   -0.3434105030    0.5259834100         -0.3609
H461       H    1.1187652673   -0.2467235643    0.4944237847          0.6001
H462       H    1.0782905084   -0.2369303757    0.5266415857         -0.3717
H463       H    1.0988537705   -0.2854321125    0.5239426144         -0.3702
O464       O    1.0646446683   -0.2684659075    0.4755141429          0.5861
O465       O    1.0130566676   -0.1900269749    0.5161950965          -0.384
C466       C    0.9563522462   -0.1591442554    0.4910100202          0.5919
C467       C    0.9532452387   -0.2041258824    0.4855485131          0.5911
H468       H    0.9334003671   -0.2147576983    0.5084943716         -0.3875
H469       H    0.9468165479   -0.1432304704    0.4646651395          0.5675
H470       H    0.9380168005   -0.1498262276    0.5158580211         -0.3867
H471       H    0.9408297388   -0.2116927996    0.4568121269          0.5666
H472       H    1.0153862097   -0.1469086216    0.4719849112          0.5732
C473       C    1.0000000000   -0.1511047103    0.5000000000          0.5985
H474       H    1.0100686129   -0.2159870553    0.4616226031          0.5701
C417       C    1.0000000000    0.1511047103    0.5000000000         -0.3843
C418       C    0.9683783024    0.1728913447    0.5122673105         -0.3749
C419       C    0.9689726221    0.2124560985    0.5114014341         -0.3791
C420       C    0.9996637548    0.2336450643    0.4984574557         -0.3928
C421       C    1.0316236476    0.2122498858    0.4882787172          0.5995
C422       C    1.0319312840    0.1721936630    0.4891424661          0.6038
C423       C    0.9957041056    0.2794913362    0.4901857134          0.5959
H424       H    0.9424228142    0.2273381408    0.5209137027         -0.3716
C425       C    0.8988206964    0.1634841314    0.5024265473         -0.3817
F426       F    1.0646738985    0.1530230281    0.4773290620          0.5945
C427       C    1.0917448150    0.2411885558    0.5071122326         -0.3873
H428       H    0.8775024379    0.1400738643    0.5085266944          -0.374
H429       H    0.9062948795    0.1630663385    0.4710341983          0.5905
H430       H    0.8858951453    0.1919329992    0.5103105571          -0.377
O431       O    0.9339367181    0.1565894970    0.5259834100         -0.3609
H432       H    1.1187652673    0.2532764357    0.4944237847          0.6001
H433       H    1.0782905084    0.2630696243    0.5266415857         -0.3717
H434       H    1.0988537705    0.2145678875    0.5239426144         -0.3702
O435       O    1.0646446683    0.2315340925    0.4755141429          0.5861
O436       O    1.0130566676    0.3099730251    0.5161950965          -0.384
C437       C    0.9563522462    0.3408557446    0.4910100202          0.5919
C438       C    0.9532452387    0.2958741176    0.4855485131          0.5911
H439       H    0.9334003671    0.2852423017    0.5084943716         -0.3875
H440       H    0.9468165479    0.3567695296    0.4646651395          0.5675
H441       H    0.9380168005    0.3501737724    0.5158580211         -0.3867
H442       H    0.9408297388    0.2883072004    0.4568121269          0.5666
H443       H    1.0153862097    0.3530913784    0.4719849112          0.5732
C444       C    1.0000000000    0.3488952897    0.5000000000          0.5985
H445       H    1.0100686129    0.2840129447    0.4616226031          0.5701
C388       C    0.8488952897   -0.0000000000    0.5000000000         -0.3843
C389       C    0.8271086553    0.0314005251    0.5128228580         -0.3749
C390       C    0.7875439015    0.0303737106    0.5130433347         -0.3791
C391       C    0.7663549357   -0.0008159474    0.5013515671         -0.3928
C392       C    0.7877501142   -0.0310266577    0.4867791806          0.5995
C393       C    0.8278063370   -0.0306564643    0.4859403366          0.6038
C394       C    0.7205086638   -0.0036249078    0.5100814173          0.5959
H395       H    0.7726618592    0.0561966044    0.5243814877         -0.3716
C396       C    0.8365158686    0.0751619280    0.5677777559         -0.3817
F397       F    0.8469769719   -0.0625592270    0.4720173680          0.5945
C398       C    0.7588114442   -0.0617529617    0.4317778140         -0.3873
H399       H    0.8599261357    0.0948396078    0.5779987565          -0.374
H400       H    0.8369336615    0.0481569636    0.5854433973          0.5905
H401       H    0.8080670008    0.0899693963    0.5709347107          -0.377
O402       O    0.8434105030    0.0658450967    0.5265314540         -0.3609
H403       H    0.7467235643   -0.0901007018    0.4224232868          0.6001
H404       H    0.7369303757   -0.0385575963    0.4268392894         -0.3717
H405       H    0.7854321125   -0.0553492437    0.4146666656         -0.3702
O406       O    0.7684659075   -0.0637853853    0.4733557707          0.5861
O407       O    0.6900269749    0.0016468152    0.4792624563          -0.384
C408       C    0.6591442554    0.0255258629    0.5365291181          0.5919
C409       C    0.7041258824    0.0240290338    0.5426316632          0.5911
H410       H    0.7147576983    0.0542145065    0.5396036959         -0.3875
H411       H    0.6432304704    0.0143455748    0.5622192609          0.5675
H412       H    0.6498262276    0.0559222645    0.5310820556         -0.3867
H413       H    0.7116927996    0.0132968858    0.5720382192          0.5666
H414       H    0.6469086216   -0.0304308822    0.5097745617          0.5732
C415       C    0.6511047103   -0.0000000000    0.5000000000          0.5985
H416       H    0.7159870553   -0.0336903045    0.5209562624          0.5701
C359       C    1.1511047103   -0.0000000000    0.5000000000         -0.3843
C360       C    1.1728913447    0.0124386205    0.5315547046         -0.3749
C361       C    1.2124560985    0.0126716143    0.5305306579         -0.3791
C362       C    1.2336450643    0.0013614260    0.4992006109         -0.3928
C363       C    1.2122498858   -0.0128411157    0.4688142772          0.5995
C364       C    1.1721936630   -0.0136844159    0.4691742040          0.6038
C365       C    1.2794913362    0.0101249127    0.4964984184          0.5959
H366       H    1.2273381408    0.0236937222    0.5564900240         -0.3716
C367       C    1.1634841314    0.0668552621    0.5759836400         -0.3817
F368       F    1.1530230281   -0.0272169345    0.4371038709          0.5945
C369       C    1.2411885558   -0.0674633322    0.4374189026         -0.3873
H370       H    1.1400738643    0.0768353108    0.5957846138          -0.374
H371       H    1.1630663385    0.0848492165    0.5491963184          0.5905
H372       H    1.1919329992    0.0698312383    0.5908285396          -0.377
O373       O    1.1565894970    0.0257257565    0.5661640405         -0.3609
H374       H    1.2532764357   -0.0764711432    0.4089590907          0.6001
H375       H    1.2630696243   -0.0726846170    0.4605522592         -0.3717
H376       H    1.2145678875   -0.0846513711    0.4436132807         -0.3702
O377       O    1.2315340925   -0.0258636648    0.4358941408          0.5861
O378       O    1.3099730251   -0.0207561002    0.5013935652          -0.384
C379       C    1.3408557446    0.0362148219    0.5259698444          0.5919
C380       C    1.2958741176    0.0423351831    0.5245476159          0.5911
H381       H    1.2852423017    0.0389389903    0.5546938797         -0.3875
H382       H    1.3567695296    0.0620395202    0.5151039692          0.5675
H383       H    1.3501737724    0.0303971396    0.5562974934         -0.3867
H384       H    1.2883072004    0.0718705474    0.5141752108          0.5666
H385       H    1.3530913784    0.0101452801    0.4696906955          0.5732
C386       C    1.3488952897   -0.0000000000    0.5000000000          0.5985
H387       H    1.2840129447    0.0213659331    0.4665680025          0.5701
C330       C   -0.0000000000   -0.3488952897    0.0000000000         -0.3843
C331       C   -0.0234752129   -0.3271086553   -0.0244812795         -0.3749
C332       C   -0.0224474517   -0.2875439015   -0.0242652589         -0.3791
C333       C    0.0012949550   -0.2663549357   -0.0009031031         -0.3928
C334       C    0.0229718452   -0.2877501142    0.0246928712          0.5995
C335       C    0.0222925921   -0.3278063370    0.0253087589          0.6038
C336       C    0.0074104415   -0.2205086638   -0.0077369430          0.5959
H337       H   -0.0414303986   -0.2726618592   -0.0451224706         -0.3716
C338       C   -0.0411147714   -0.3365158686   -0.0924808909         -0.3817
F339       F    0.0457794102   -0.3469769719    0.0509993155          0.5945
C340       C    0.0286832885   -0.2588114442    0.0874354842         -0.3873
H341       H   -0.0549374639   -0.3599261357   -0.1098190889          -0.374
H342       H   -0.0092602841   -0.3369336615   -0.0976417658          0.5905
H343       H   -0.0533598115   -0.3080670008   -0.1013851862          -0.377
O344       O   -0.0493714509   -0.3434105030   -0.0510093584         -0.3609
H345       H    0.0507794524   -0.2467235643    0.1075068840          0.6001
H346       H    0.0054835977   -0.2369303757    0.0825173191         -0.3717
H347       H    0.0158760945   -0.2854321125    0.1004652495         -0.3702
O348       O    0.0474437931   -0.2684659075    0.0502750120          0.5861
O349       O   -0.0099354779   -0.1900269749    0.0182768705          -0.384
C350       C   -0.0084701189   -0.1591442554   -0.0437516084          0.5919
C351       C   -0.0046215691   -0.2041258824   -0.0487185209          0.5911
H352       H   -0.0334308713   -0.2147576983   -0.0582240697         -0.3875
H353       H    0.0121888930   -0.1432304704   -0.0626774508          0.5675
H354       H   -0.0384556209   -0.1498262276   -0.0511327593         -0.3867
H355       H    0.0171389271   -0.2116927996   -0.0712219725          0.5666
H356       H    0.0317763605   -0.1469086216    0.0034414474          0.5732
C357       C   -0.0000000000   -0.1511047103    0.0000000000          0.5985
H358       H    0.0393002076   -0.2159870553   -0.0054493338          0.5701
C301       C    0.0000000000    0.1511047103    0.0000000000         -0.3843
C302       C    0.0130969413    0.1728913447    0.0312871985         -0.3749
C303       C    0.0122156932    0.2124560985    0.0307159196         -0.3791
C304       C   -0.0015331407    0.2336450643    0.0003768068         -0.3928
C305       C   -0.0125511549    0.2122498858   -0.0313035472          0.5995
C306       C   -0.0116958191    0.1721936630   -0.0316338546          0.6038
C307       C   -0.0096975862    0.2794913362    0.0045532134          0.5959
H308       H    0.0224247997    0.2273381408    0.0570056457         -0.3716
C309       C    0.0050939070    0.1634841314    0.1010801253         -0.3817
F310       F   -0.0243685716    0.1530230281   -0.0640535502          0.5945
C311       C    0.0046903528    0.2411885558   -0.0919004653         -0.3873
H312       H    0.0117541172    0.1400738643    0.1222301025          -0.374
H313       H   -0.0264846265    0.1630663385    0.0944363905          0.5905
H314       H    0.0133160351    0.1919329992    0.1137932716          -0.377
O315       O    0.0277165311    0.1565894970    0.0653550970         -0.3609
H316       H   -0.0087062398    0.2532764357   -0.1185769130          0.6001
H317       H    0.0245677182    0.2630696243   -0.0789658472         -0.3717
H318       H    0.0213274109    0.2145678875   -0.0994507832         -0.3702
O319       O   -0.0261820887    0.2315340925   -0.0639764688          0.5861
O320       O    0.0158451463    0.3099730251   -0.0134792083          -0.384
C321       C   -0.0078358166    0.3408557446    0.0438696493          0.5919
C322       C   -0.0132134892    0.2958741176    0.0471196019          0.5911
H323       H    0.0102477191    0.2852423017    0.0663524657         -0.3875
H324       H   -0.0339200689    0.3567695296    0.0540967733          0.5675
H325       H    0.0174870676    0.3501737724    0.0615434507         -0.3867
H326       H   -0.0416124720    0.2883072004    0.0602885923          0.5666
H327       H   -0.0284110962    0.3530913784   -0.0146420716          0.5732
C328       C    0.0000000000    0.3488952897    0.0000000000          0.5985
H329       H   -0.0386295699    0.2840129447   -0.0090530593          0.5701
C272       C   -0.1511047103   -0.0000000000    0.0000000000         -0.3843
C273       C   -0.1728913447   -0.0027737858   -0.0338042124         -0.3749
C274       C   -0.2124560985   -0.0021125386   -0.0329883018         -0.3791
C275       C   -0.2336450643    0.0015744956    0.0001160480         -0.3928
C276       C   -0.2122498858    0.0022497229    0.0336508886          0.5995
C277       C   -0.1721936630    0.0013341592    0.0337003406          0.6038
C278       C   -0.2794913362    0.0106305192   -0.0013292827          0.5959
H279       H   -0.2273381408   -0.0036864505   -0.0611467527         -0.3716
C280       C   -0.1634841314    0.0264309698   -0.0976961793         -0.3817
F281       F   -0.1530230281    0.0033541686    0.0684502310          0.5945
C282       C   -0.2411885558   -0.0328948598    0.0859396482         -0.3873
H283       H   -0.1400738643    0.0266415333   -0.1198690366          -0.374
H284       H   -0.1630663385    0.0544043143   -0.0816078297          0.5905
H285       H   -0.1919329992    0.0225458432   -0.1123294726          -0.377
O286       O   -0.1565894970   -0.0061351346   -0.0707237932         -0.3609
H287       H   -0.2532764357   -0.0284095273    0.1154520752          0.6001
H288       H   -0.2630696243   -0.0477947721    0.0674895367         -0.3717
H289       H   -0.2145678875   -0.0510516542    0.0879718440         -0.3702
O290       O   -0.2315340925    0.0051025453    0.0689380473          0.5861
O291       O   -0.3099730251   -0.0192381833    0.0079151767          -0.384
C292       C   -0.3408557446    0.0210248950   -0.0392924921          0.5919
C293       C   -0.2958741176    0.0271442420   -0.0407190779          0.5911
H294       H   -0.2852423017    0.0107850696   -0.0662672447         -0.3875
H295       H   -0.3567695296    0.0489935294   -0.0409471125          0.5675
H296       H   -0.3501737724    0.0024130148   -0.0639341162         -0.3867
H297       H   -0.2883072004    0.0582242569   -0.0444550121          0.5666
H298       H   -0.3530913784    0.0224865915    0.0227141773          0.5732
C299       C   -0.3488952897   -0.0000000000    0.0000000000          0.5985
H300       H   -0.2840129447    0.0339329217    0.0205610890          0.5701
C243       C    0.3488952897   -0.0000000000    0.0000000000         -0.3843
C244       C    0.3271086553    0.0081344464   -0.0329279432         -0.3749
C245       C    0.2875439015    0.0085014757   -0.0319439476         -0.3791
C246       C    0.2663549357    0.0014555922    0.0006113550         -0.3928
C247       C    0.2877501142   -0.0085824111    0.0326157290          0.5995
C248       C    0.3278063370   -0.0094660665    0.0323710754          0.6038
C249       C    0.2205086638    0.0105004733    0.0021248508          0.5959
H250       H    0.2726618592    0.0159756330   -0.0591379272         -0.3716
C251       C    0.3365158686    0.0561634401   -0.0841950570         -0.3817
F252       F    0.3469769719   -0.0186161763    0.0659554589          0.5945
C253       C    0.2588114442   -0.0585474010    0.0709922304         -0.3873
H254       H    0.3599261357    0.0634232732   -0.1051467814          -0.374
H255       H    0.3369336615    0.0775579721   -0.0600368907          0.5905
H256       H    0.3080670008    0.0571400313   -0.0993037878          -0.377
O257       O    0.3434105030    0.0167039004   -0.0689961920         -0.3609
H258       H    0.2467235643   -0.0636928055    0.1003967601          0.6001
H259       H    0.2369303757   -0.0667969393    0.0487580424         -0.3717
H260       H    0.2854321125   -0.0764062307    0.0671372076         -0.3702
O261       O    0.2684659075   -0.0171141310    0.0669745986          0.5861
O262       O    0.1900269749   -0.0207571779    0.0013774187          -0.384
C263       C    0.1591442554    0.0324419835   -0.0305526407          0.5919
C264       C    0.2041258824    0.0386970718   -0.0299564653          0.5911
H265       H    0.2147576983    0.0313243732   -0.0593839127         -0.3875
H266       H    0.1432304704    0.0594817255   -0.0232154319          0.5675
H267       H    0.1498262276    0.0226451701   -0.0598380324         -0.3867
H268       H    0.2116927996    0.0693489756   -0.0236015206          0.5666
H269       H    0.1469086216    0.0140835811    0.0286920440          0.5732
C270       C    0.1511047103   -0.0000000000    0.0000000000          0.5985
H271       H    0.2159870553    0.0256197171    0.0302957365          0.5701
C214       C   -0.0000000000    0.0000000000   -0.3488952897         -0.3843
C215       C    0.0192695618   -0.0279124103   -0.3271086553         -0.3749
C216       C    0.0182894182   -0.0275352149   -0.2875439015         -0.3791
C217       C   -0.0014224306   -0.0006849781   -0.2663549357         -0.3928
C218       C   -0.0187388878    0.0280409993   -0.2877501142          0.5995
C219       C   -0.0179700901    0.0285406517   -0.3278063370          0.6038
C220       C   -0.0085496972   -0.0064558198   -0.2205086638          0.5959
H221       H    0.0337023179   -0.0511533875   -0.2726618592         -0.3716
C222       C    0.0258364684   -0.0978550792   -0.3365158686         -0.3817
F223       F   -0.0370582137    0.0576487066   -0.3469769719          0.5945
C224       C   -0.0143689653    0.0908912965   -0.2588114442         -0.3873
H225       H    0.0367165130   -0.1171761703   -0.3599261357          -0.374
H226       H   -0.0064333752   -0.0978686823   -0.3369336615          0.5905
H227       H    0.0365043746   -0.1085986008   -0.3080670008          -0.377
O228       O    0.0406026595   -0.0582315966   -0.3434105030         -0.3609
H229       H   -0.0329805670    0.1142303160   -0.2467235643          0.6001
H230       H    0.0077491651    0.0823354616   -0.2369303757         -0.3717
H231       H    0.0003526555    0.1017113188   -0.2854321125         -0.3702
O232       O   -0.0388168211    0.0571991673   -0.2684659075          0.5861
O233       O    0.0127236538    0.0164580179   -0.1900269749          -0.384
C234       C    0.0013827348   -0.0445424987   -0.1591442554          0.5919
C235       C   -0.0032088227   -0.0488319223   -0.2041258824          0.5911
H236       H    0.0237153476   -0.0628112071   -0.2147576983         -0.3875
H237       H   -0.0220306668   -0.0599306405   -0.1432304704          0.5675
H238       H    0.0298069129   -0.0566122054   -0.1498262276         -0.3867
H239       H   -0.0282802788   -0.0675761646   -0.2116927996          0.5666
H240       H   -0.0308205386    0.0084661119   -0.1469086216          0.5732
C241       C    0.0000000000    0.0000000000   -0.1511047103          0.5985
H242       H   -0.0396662409    0.0008893174   -0.2159870553          0.5701
C185       C   -0.0000000000    0.0000000000    0.1511047103         -0.3843
C186       C    0.0047424823   -0.0335846323    0.1728913447         -0.3749
C187       C    0.0040347315   -0.0328087156    0.2124560985         -0.3791
C188       C   -0.0015785851    0.0000239340    0.2336450643         -0.3928
C189       C   -0.0042103624    0.0334621638    0.2122498858          0.5995
C190       C   -0.0032992471    0.0335649804    0.1721936630          0.6038
C191       C   -0.0105347882   -0.0019476056    0.2794913362          0.5959
H192       H    0.0072497972   -0.0608272614    0.2273381408         -0.3716
C193       C   -0.0206825716   -0.0990725535    0.1634841314         -0.3817
F194       F   -0.0073444454    0.0681376819    0.1530230281          0.5945
C195       C    0.0278217621    0.0877134225    0.2411885558         -0.3873
H196       H   -0.0195983659   -0.1212198881    0.1400738643          -0.374
H197       H   -0.0495474166   -0.0846446737    0.1630663385          0.5905
H198       H   -0.0159498065   -0.1134540838    0.1919329992          -0.377
O199       O    0.0102533949   -0.0702450190    0.1565894970         -0.3609
H200       H    0.0216211985    0.1169136719    0.2532764357          0.6001
H201       H    0.0437733464    0.0701646061    0.2630696243         -0.3717
H202       H    0.0458289550    0.0908021124    0.2145678875         -0.3702
O203       O   -0.0091183181    0.0685225993    0.2315340925          0.5861
O204       O    0.0187433001    0.0090247671    0.3099730251          -0.384
C205       C   -0.0186952153   -0.0404528747    0.3408557446          0.5919
C206       C   -0.0247208446   -0.0422342636    0.2958741176          0.5911
H207       H   -0.0068981176   -0.0667838410    0.2852423017         -0.3875
H208       H   -0.0465195567   -0.0437374301    0.3567695296          0.5675
H209       H    0.0013234553   -0.0639659465    0.3501737724         -0.3867
H210       H   -0.0555297570   -0.0477782198    0.2883072004          0.5666
H211       H   -0.0237742530    0.0213627138    0.3530913784          0.5732
C212       C    0.0000000000    0.0000000000    0.3488952897          0.5985
H213       H   -0.0350753687    0.0185450820    0.2840129447          0.5701
loop_
_geom_bond_atom_site_label_1
_geom_bond_atom_site_label_2
_geom_bond_distance
_geom_bond_site_symmetry_2
_ccdc_geom_bond_type
Zn1          O5 1.942       .   S
Zn1          O6 1.922       .   S
Zn1         O10 1.922       .   S
Zn1         O17 1.922       .   S
Zn2          O5 1.942       .   S
Zn2          O7 1.922       .   S
Zn2          O9 1.922       .   S
Zn2         O13 1.922       .   S
Zn3          O5 1.942       .   S
Zn3          O8 1.922       .   S
Zn3         O11 1.922       .   S
Zn3         O14 1.922       .   S
Zn4          O5 1.942       .   S
Zn4         O12 1.922       .   S
Zn4         O15 1.922       .   S
Zn4         O16 1.922       .   S
O6          C18 1.304       .   A
O7          C19 1.304       .   A
O8          C20 1.304       .   A
O9          C18 1.304       .   A
O10         C20 1.304       .   A
O11         C19 1.304       .   A
O12         C21 1.304       .   A
O13         C22 1.304       .   A
O14         C21 1.304       .   A
O15         C22 1.304       .   A
O16         C23 1.304       .   A
O17         C23 1.304       .   A
C18        C185 1.540       .   S
C19        C270 1.540       .   S
C20        C357 1.540       .   S
C21        C241 1.540       .   S
C22        C301 1.540       .   S
C23        C272 1.540       .   S
Zn24        O28 1.942       .   S
Zn24        O29 1.922       .   S
Zn24        O33 1.922       .   S
Zn24        O40 1.922       .   S
Zn25        O28 1.942       .   S
Zn25        O30 1.922       .   S
Zn25        O32 1.922       .   S
Zn25        O36 1.922       .   S
Zn26        O28 1.942       .   S
Zn26        O31 1.922       .   S
Zn26        O34 1.922       .   S
Zn26        O37 1.922       .   S
Zn27        O28 1.942       .   S
Zn27        O35 1.922       .   S
Zn27        O38 1.922       .   S
Zn27        O39 1.922       .   S
O29         C41 1.304       .   A
O30         C42 1.304       .   A
O31         C43 1.304       .   A
O32         C41 1.304       .   A
O33         C43 1.304       .   A
O34         C42 1.304       .   A
O35         C44 1.304       .   A
O36         C45 1.304       .   A
O37         C44 1.304       .   A
O38         C45 1.304       .   A
O39         C46 1.304       .   A
O40         C46 1.304       .   A
C41        C212 1.540   1_655   S
C42        C359 1.540       .   S
C43        C417 1.540       .   S
C44        C214 1.540   1_656   S
C45        C473 1.540       .   S
C46        C388 1.540       .   S
Zn47        O51 1.942       .   S
Zn47        O52 1.922       .   S
Zn47        O56 1.922       .   S
Zn47        O63 1.922       .   S
Zn48        O51 1.942       .   S
Zn48        O53 1.922       .   S
Zn48        O55 1.922       .   S
Zn48        O59 1.922       .   S
Zn49        O51 1.942       .   S
Zn49        O54 1.922       .   S
Zn49        O57 1.922       .   S
Zn49        O60 1.922       .   S
Zn50        O51 1.942       .   S
Zn50        O58 1.922       .   S
Zn50        O61 1.922       .   S
Zn50        O62 1.922       .   S
O52         C64 1.304       .   A
O53         C65 1.304       .   A
O54         C66 1.304       .   A
O55         C64 1.304       .   A
O56         C66 1.304       .   A
O57         C65 1.304       .   A
O58         C67 1.304       .   A
O59         C68 1.304       .   A
O60         C67 1.304       .   A
O61         C68 1.304       .   A
O62         C69 1.304       .   A
O63         C69 1.304       .   A
C64        C328 1.540   1_655   S
C65        C475 1.540       .   S
C66        C533 1.540       .   S
C67        C330 1.540   1_665   S
C68        C562 1.540       .   S
C69        C504 1.540       .   S
Zn70        O74 1.942       .   S
Zn70        O75 1.922       .   S
Zn70        O79 1.922       .   S
Zn70        O86 1.922       .   S
Zn71        O74 1.942       .   S
Zn71        O76 1.922       .   S
Zn71        O78 1.922       .   S
Zn71        O82 1.922       .   S
Zn72        O74 1.942       .   S
Zn72        O77 1.922       .   S
Zn72        O80 1.922       .   S
Zn72        O83 1.922       .   S
Zn73        O74 1.942       .   S
Zn73        O81 1.922       .   S
Zn73        O84 1.922       .   S
Zn73        O85 1.922       .   S
O75         C87 1.304       .   A
O76         C88 1.304       .   A
O77         C89 1.304       .   A
O78         C87 1.304       .   A
O79         C89 1.304       .   A
O80         C88 1.304       .   A
O81         C90 1.304       .   A
O82         C91 1.304       .   A
O83         C90 1.304       .   A
O84         C91 1.304       .   A
O85         C92 1.304       .   A
O86         C92 1.304       .   A
C87        C444 1.540       .   S
C88        C502 1.540       .   S
C89        C620 1.540       .   S
C90        C446 1.540   1_565   S
C91        C591 1.540       .   S
C92        C531 1.540   1_556   S
Zn93        O97 1.942       .   S
Zn93        O98 1.922       .   S
Zn93       O102 1.922       .   S
Zn93       O109 1.922       .   S
Zn94        O97 1.942       .   S
Zn94        O99 1.922       .   S
Zn94       O101 1.922       .   S
Zn94       O105 1.922       .   S
Zn95        O97 1.942       .   S
Zn95       O100 1.922       .   S
Zn95       O103 1.922       .   S
Zn95       O106 1.922       .   S
Zn96        O97 1.942       .   S
Zn96       O104 1.922       .   S
Zn96       O107 1.922       .   S
Zn96       O108 1.922       .   S
O98        C110 1.304       .   A
O99        C111 1.304       .   A
O100       C112 1.304       .   A
O101       C110 1.304       .   A
O102       C112 1.304       .   A
O103       C111 1.304       .   A
O104       C113 1.304       .   A
O105       C114 1.304       .   A
O106       C113 1.304       .   A
O107       C114 1.304       .   A
O108       C115 1.304       .   A
O109       C115 1.304       .   A
C110       C676 1.540       .   S
C111       C243 1.540   1_565   S
C112       C707 1.540       .   S
C113       C705 1.540       .   S
C114       C763 1.540       .   S
C115       C299 1.540   1_665   S
Zn116      O120 1.942       .   S
Zn116      O121 1.922       .   S
Zn116      O125 1.922       .   S
Zn116      O132 1.922       .   S
Zn117      O120 1.942       .   S
Zn117      O122 1.922       .   S
Zn117      O124 1.922       .   S
Zn117      O128 1.922       .   S
Zn118      O120 1.942       .   S
Zn118      O123 1.922       .   S
Zn118      O126 1.922       .   S
Zn118      O129 1.922       .   S
Zn119      O120 1.942       .   S
Zn119      O127 1.922       .   S
Zn119      O130 1.922       .   S
Zn119      O131 1.922       .   S
O121       C133 1.304       .   A
O122       C134 1.304       .   A
O123       C135 1.304       .   A
O124       C133 1.304       .   A
O125       C135 1.304       .   A
O126       C134 1.304       .   A
O127       C136 1.304       .   A
O128       C137 1.304       .   A
O129       C136 1.304       .   A
O130       C137 1.304       .   A
O131       C138 1.304       .   A
O132       C138 1.304       .   A
C133       C386 1.540   1_465   S
C134       C649 1.540       .   S
C135       C765 1.540       .   S
C136       C415 1.540   1_565   S
C137       C794 1.540       .   S
C138       C678 1.540   1_556   S
Zn139      O143 1.942       .   S
Zn139      O144 1.922       .   S
Zn139      O148 1.922       .   S
Zn139      O155 1.922       .   S
Zn140      O143 1.942       .   S
Zn140      O145 1.922       .   S
Zn140      O147 1.922       .   S
Zn140      O151 1.922       .   S
Zn141      O143 1.942       .   S
Zn141      O146 1.922       .   S
Zn141      O149 1.922       .   S
Zn141      O152 1.922       .   S
Zn142      O143 1.942       .   S
Zn142      O150 1.922       .   S
Zn142      O153 1.922       .   S
Zn142      O154 1.922       .   S
O144       C156 1.304       .   A
O145       C157 1.304       .   A
O146       C158 1.304       .   A
O147       C156 1.304       .   A
O148       C158 1.304       .   A
O149       C157 1.304       .   A
O150       C159 1.304       .   A
O151       C160 1.304       .   A
O152       C159 1.304       .   A
O153       C160 1.304       .   A
O154       C161 1.304       .   A
O155       C161 1.304       .   A
C156       C560 1.540   1_455   S
C157       C852 1.540       .   S
C158       C736 1.540       .   S
C159       C589 1.540       .   S
C160       C734 1.540   1_545   S
C161       C850 1.540       .   S
Zn162      O166 1.942       .   S
Zn162      O167 1.922       .   S
Zn162      O171 1.922       .   S
Zn162      O178 1.922       .   S
Zn163      O166 1.942       .   S
Zn163      O168 1.922       .   S
Zn163      O170 1.922       .   S
Zn163      O174 1.922       .   S
Zn164      O166 1.942       .   S
Zn164      O169 1.922       .   S
Zn164      O172 1.922       .   S
Zn164      O175 1.922       .   S
Zn165      O166 1.942       .   S
Zn165      O173 1.922       .   S
Zn165      O176 1.922       .   S
Zn165      O177 1.922       .   S
O167       C179 1.304       .   A
O168       C180 1.304       .   A
O169       C181 1.304       .   A
O170       C179 1.304       .   A
O171       C181 1.304       .   A
O172       C180 1.304       .   A
O173       C182 1.304       .   A
O174       C183 1.304       .   A
O175       C182 1.304       .   A
O176       C183 1.304       .   A
O177       C184 1.304       .   A
O178       C184 1.304       .   A
C179       C618 1.540   1_455   S
C180       C792 1.540   1_545   S
C181       C823 1.540       .   S
C182       C647 1.540       .   S
C183       C879 1.540   1_556   S
C184       C821 1.540       .   S
C852       C853 0.036       .   A
C852       C857 0.035       .   A
C853       C854 0.035       .   A
C853       O866 0.036       .   A
C854       C855 0.035       .   A
C854       H859 0.028       .   A
C855       C856 0.035       .   A
C855       C858 0.041       .   A
C856       C857 0.036       .   A
C856       O870 0.036       .   A
C857       F861 0.035       .   A
C858       O871 0.039       .   A
C858       C873 0.041       .   A
C858       H880 0.029       .   A
C860       H863 0.029       .   A
C860       H864 0.029       .   A
C860       H865 0.029       .   A
C860       O866 0.038       .   A
C862       H867 0.029       .   A
C862       H868 0.029       .   A
C862       H869 0.029       .   A
C862       O870 0.038       .   A
O871       C879 0.039       .   A
C872       C873 0.040       .   A
C872       H875 0.029       .   A
C872       H876 0.029       .   A
C872       C879 0.040       .   A
C873       H874 0.028       .   A
C873       H877 0.029       .   A
H878       C879 0.029       .   A
C823       C824 0.036       .   A
C823       C828 0.035       .   A
C824       C825 0.035       .   A
C824       O837 0.036       .   A
C825       C826 0.035       .   A
C825       H830 0.028       .   A
C826       C827 0.035       .   A
C826       C829 0.041       .   A
C827       C828 0.036       .   A
C827       O841 0.036       .   A
C828       F832 0.035       .   A
C829       O842 0.039       .   A
C829       C844 0.041       .   A
C829       H851 0.029       .   A
C831       H834 0.029       .   A
C831       H835 0.029       .   A
C831       H836 0.029       .   A
C831       O837 0.038       .   A
C833       H838 0.029       .   A
C833       H839 0.029       .   A
C833       H840 0.029       .   A
C833       O841 0.038       .   A
O842       C850 0.039       .   A
C843       C844 0.040       .   A
C843       H846 0.029       .   A
C843       H847 0.029       .   A
C843       C850 0.040       .   A
C844       H845 0.028       .   A
C844       H848 0.029       .   A
H849       C850 0.029       .   A
C794       C795 0.036       .   A
C794       C799 0.035       .   A
C795       C796 0.035       .   A
C795       O808 0.036       .   A
C796       C797 0.035       .   A
C796       H801 0.028       .   A
C797       C798 0.035       .   A
C797       C800 0.041       .   A
C798       C799 0.036       .   A
C798       O812 0.036       .   A
C799       F803 0.035       .   A
C800       O813 0.039       .   A
C800       C815 0.041       .   A
C800       H822 0.029       .   A
C802       H805 0.029       .   A
C802       H806 0.029       .   A
C802       H807 0.029       .   A
C802       O808 0.038       .   A
C804       H809 0.029       .   A
C804       H810 0.029       .   A
C804       H811 0.029       .   A
C804       O812 0.038       .   A
O813       C821 0.039       .   A
C814       C815 0.040       .   A
C814       H817 0.029       .   A
C814       H818 0.029       .   A
C814       C821 0.040       .   A
C815       H816 0.028       .   A
C815       H819 0.029       .   A
H820       C821 0.029       .   A
C765       C766 0.036       .   A
C765       C770 0.035       .   A
C766       C767 0.035       .   A
C766       O779 0.036       .   A
C767       C768 0.035       .   A
C767       H772 0.028       .   A
C768       C769 0.035       .   A
C768       C771 0.041       .   A
C769       C770 0.036       .   A
C769       O783 0.036       .   A
C770       F774 0.035       .   A
C771       O784 0.039       .   A
C771       C786 0.041       .   A
C771       H793 0.029       .   A
C773       H776 0.029       .   A
C773       H777 0.029       .   A
C773       H778 0.029       .   A
C773       O779 0.038       .   A
C775       H780 0.029       .   A
C775       H781 0.029       .   A
C775       H782 0.029       .   A
C775       O783 0.038       .   A
O784       C792 0.039       .   A
C785       C786 0.040       .   A
C785       H788 0.029       .   A
C785       H789 0.029       .   A
C785       C792 0.040       .   A
C786       H787 0.028       .   A
C786       H790 0.029       .   A
H791       C792 0.029       .   A
C736       C737 0.036       .   A
C736       C741 0.035       .   A
C737       C738 0.035       .   A
C737       O750 0.036       .   A
C738       C739 0.035       .   A
C738       H743 0.028       .   A
C739       C740 0.035       .   A
C739       C742 0.041       .   A
C740       C741 0.036       .   A
C740       O754 0.036       .   A
C741       F745 0.035       .   A
C742       O755 0.039       .   A
C742       C757 0.041       .   A
C742       H764 0.029       .   A
C744       H747 0.029       .   A
C744       H748 0.029       .   A
C744       H749 0.029       .   A
C744       O750 0.038       .   A
C746       H751 0.029       .   A
C746       H752 0.029       .   A
C746       H753 0.029       .   A
C746       O754 0.038       .   A
O755       C763 0.039       .   A
C756       C757 0.040       .   A
C756       H759 0.029       .   A
C756       H760 0.029       .   A
C756       C763 0.040       .   A
C757       H758 0.028       .   A
C757       H761 0.029       .   A
H762       C763 0.029       .   A
C707       C708 0.036       .   A
C707       C712 0.035       .   A
C708       C709 0.035       .   A
C708       O721 0.036       .   A
C709       C710 0.035       .   A
C709       H714 0.028       .   A
C710       C711 0.035       .   A
C710       C713 0.041       .   A
C711       C712 0.036       .   A
C711       O725 0.036       .   A
C712       F716 0.035       .   A
C713       O726 0.039       .   A
C713       C728 0.041       .   A
C713       H735 0.029       .   A
C715       H718 0.029       .   A
C715       H719 0.029       .   A
C715       H720 0.029       .   A
C715       O721 0.038       .   A
C717       H722 0.029       .   A
C717       H723 0.029       .   A
C717       H724 0.029       .   A
C717       O725 0.038       .   A
O726       C734 0.039       .   A
C727       C728 0.040       .   A
C727       H730 0.029       .   A
C727       H731 0.029       .   A
C727       C734 0.040       .   A
C728       H729 0.028       .   A
C728       H732 0.029       .   A
H733       C734 0.029       .   A
C678       C679 0.036       .   A
C678       C683 0.035       .   A
C679       C680 0.035       .   A
C679       O692 0.036       .   A
C680       C681 0.035       .   A
C680       H685 0.028       .   A
C681       C682 0.035       .   A
C681       C684 0.041       .   A
C682       C683 0.036       .   A
C682       O696 0.036       .   A
C683       F687 0.035       .   A
C684       O697 0.039       .   A
C684       C699 0.041       .   A
C684       H706 0.029       .   A
C686       H689 0.029       .   A
C686       H690 0.029       .   A
C686       H691 0.029       .   A
C686       O692 0.038       .   A
C688       H693 0.029       .   A
C688       H694 0.029       .   A
C688       H695 0.029       .   A
C688       O696 0.038       .   A
O697       C705 0.039       .   A
C698       C699 0.040       .   A
C698       H701 0.029       .   A
C698       H702 0.029       .   A
C698       C705 0.040       .   A
C699       H700 0.028       .   A
C699       H703 0.029       .   A
H704       C705 0.029       .   A
C649       C650 0.036       .   A
C649       C654 0.035       .   A
C650       C651 0.035       .   A
C650       O663 0.036       .   A
C651       C652 0.035       .   A
C651       H656 0.028       .   A
C652       C653 0.035       .   A
C652       C655 0.041       .   A
C653       C654 0.036       .   A
C653       O667 0.036       .   A
C654       F658 0.035       .   A
C655       O668 0.039       .   A
C655       C670 0.041       .   A
C655       H677 0.029       .   A
C657       H660 0.029       .   A
C657       H661 0.029       .   A
C657       H662 0.029       .   A
C657       O663 0.038       .   A
C659       H664 0.029       .   A
C659       H665 0.029       .   A
C659       H666 0.029       .   A
C659       O667 0.038       .   A
O668       C676 0.039       .   A
C669       C670 0.040       .   A
C669       H672 0.029       .   A
C669       H673 0.029       .   A
C669       C676 0.040       .   A
C670       H671 0.028       .   A
C670       H674 0.029       .   A
H675       C676 0.029       .   A
C620       C621 0.036       .   A
C620       C625 0.035       .   A
C621       C622 0.035       .   A
C621       O634 0.036       .   A
C622       C623 0.035       .   A
C622       H627 0.028       .   A
C623       C624 0.035       .   A
C623       C626 0.041       .   A
C624       C625 0.036       .   A
C624       O638 0.036       .   A
C625       F629 0.035       .   A
C626       O639 0.039       .   A
C626       C641 0.041       .   A
C626       H648 0.029       .   A
C628       H631 0.029       .   A
C628       H632 0.029       .   A
C628       H633 0.029       .   A
C628       O634 0.038       .   A
C630       H635 0.029       .   A
C630       H636 0.029       .   A
C630       H637 0.029       .   A
C630       O638 0.038       .   A
O639       C647 0.039       .   A
C640       C641 0.040       .   A
C640       H643 0.029       .   A
C640       H644 0.029       .   A
C640       C647 0.040       .   A
C641       H642 0.028       .   A
C641       H645 0.029       .   A
H646       C647 0.029       .   A
C591       C592 0.036       .   A
C591       C596 0.035       .   A
C592       C593 0.035       .   A
C592       O605 0.036       .   A
C593       C594 0.035       .   A
C593       H598 0.028       .   A
C594       C595 0.035       .   A
C594       C597 0.041       .   A
C595       C596 0.036       .   A
C595       O609 0.036       .   A
C596       F600 0.035       .   A
C597       O610 0.039       .   A
C597       C612 0.041       .   A
C597       H619 0.029       .   A
C599       H602 0.029       .   A
C599       H603 0.029       .   A
C599       H604 0.029       .   A
C599       O605 0.038       .   A
C601       H606 0.029       .   A
C601       H607 0.029       .   A
C601       H608 0.029       .   A
C601       O609 0.038       .   A
O610       C618 0.039       .   A
C611       C612 0.040       .   A
C611       H614 0.029       .   A
C611       H615 0.029       .   A
C611       C618 0.040       .   A
C612       H613 0.028       .   A
C612       H616 0.029       .   A
H617       C618 0.029       .   A
C562       C563 0.036       .   A
C562       C567 0.035       .   A
C563       C564 0.035       .   A
C563       O576 0.036       .   A
C564       C565 0.035       .   A
C564       H569 0.028       .   A
C565       C566 0.035       .   A
C565       C568 0.041       .   A
C566       C567 0.036       .   A
C566       O580 0.036       .   A
C567       F571 0.035       .   A
C568       O581 0.039       .   A
C568       C583 0.041       .   A
C568       H590 0.029       .   A
C570       H573 0.029       .   A
C570       H574 0.029       .   A
C570       H575 0.029       .   A
C570       O576 0.038       .   A
C572       H577 0.029       .   A
C572       H578 0.029       .   A
C572       H579 0.029       .   A
C572       O580 0.038       .   A
O581       C589 0.039       .   A
C582       C583 0.040       .   A
C582       H585 0.029       .   A
C582       H586 0.029       .   A
C582       C589 0.040       .   A
C583       H584 0.028       .   A
C583       H587 0.029       .   A
H588       C589 0.029       .   A
C533       C534 0.036       .   A
C533       C538 0.035       .   A
C534       C535 0.035       .   A
C534       O547 0.036       .   A
C535       C536 0.035       .   A
C535       H540 0.028       .   A
C536       C537 0.035       .   A
C536       C539 0.041       .   A
C537       C538 0.036       .   A
C537       O551 0.036       .   A
C538       F542 0.035       .   A
C539       O552 0.039       .   A
C539       C554 0.041       .   A
C539       H561 0.029       .   A
C541       H544 0.029       .   A
C541       H545 0.029       .   A
C541       H546 0.029       .   A
C541       O547 0.038       .   A
C543       H548 0.029       .   A
C543       H549 0.029       .   A
C543       H550 0.029       .   A
C543       O551 0.038       .   A
O552       C560 0.039       .   A
C553       C554 0.040       .   A
C553       H556 0.029       .   A
C553       H557 0.029       .   A
C553       C560 0.040       .   A
C554       H555 0.028       .   A
C554       H558 0.029       .   A
H559       C560 0.029       .   A
C504       C505 0.036       .   A
C504       C509 0.035       .   A
C505       C506 0.035       .   A
C505       O518 0.036       .   A
C506       C507 0.035       .   A
C506       H511 0.028       .   A
C507       C508 0.035       .   A
C507       C510 0.041       .   A
C508       C509 0.036       .   A
C508       O522 0.036       .   A
C509       F513 0.035       .   A
C510       O523 0.039       .   A
C510       C525 0.041       .   A
C510       H532 0.029       .   A
C512       H515 0.029       .   A
C512       H516 0.029       .   A
C512       H517 0.029       .   A
C512       O518 0.038       .   A
C514       H519 0.029       .   A
C514       H520 0.029       .   A
C514       H521 0.029       .   A
C514       O522 0.038       .   A
O523       C531 0.039       .   A
C524       C525 0.040       .   A
C524       H527 0.029       .   A
C524       H528 0.029       .   A
C524       C531 0.040       .   A
C525       H526 0.028       .   A
C525       H529 0.029       .   A
H530       C531 0.029       .   A
C475       C476 0.036       .   A
C475       C480 0.035       .   A
C476       C477 0.035       .   A
C476       O489 0.036       .   A
C477       C478 0.035       .   A
C477       H482 0.028       .   A
C478       C479 0.035       .   A
C478       C481 0.041       .   A
C479       C480 0.036       .   A
C479       O493 0.036       .   A
C480       F484 0.035       .   A
C481       O494 0.039       .   A
C481       C496 0.041       .   A
C481       H503 0.029       .   A
C483       H486 0.029       .   A
C483       H487 0.029       .   A
C483       H488 0.029       .   A
C483       O489 0.038       .   A
C485       H490 0.029       .   A
C485       H491 0.029       .   A
C485       H492 0.029       .   A
C485       O493 0.038       .   A
O494       C502 0.039       .   A
C495       C496 0.040       .   A
C495       H498 0.029       .   A
C495       H499 0.029       .   A
C495       C502 0.040       .   A
C496       H497 0.028       .   A
C496       H500 0.029       .   A
H501       C502 0.029       .   A
C446       C447 0.036       .   A
C446       C451 0.035       .   A
C447       C448 0.035       .   A
C447       O460 0.036       .   A
C448       C449 0.035       .   A
C448       H453 0.028       .   A
C449       C450 0.035       .   A
C449       C452 0.041       .   A
C450       C451 0.036       .   A
C450       O464 0.036       .   A
C451       F455 0.035       .   A
C452       O465 0.039       .   A
C452       C467 0.041       .   A
C452       H474 0.029       .   A
C454       H457 0.029       .   A
C454       H458 0.029       .   A
C454       H459 0.029       .   A
C454       O460 0.038       .   A
C456       H461 0.029       .   A
C456       H462 0.029       .   A
C456       H463 0.029       .   A
C456       O464 0.038       .   A
O465       C473 0.039       .   A
C466       C467 0.040       .   A
C466       H469 0.029       .   A
C466       H470 0.029       .   A
C466       C473 0.040       .   A
C467       H468 0.028       .   A
C467       H471 0.029       .   A
H472       C473 0.029       .   A
C417       C418 0.036       .   A
C417       C422 0.035       .   A
C418       C419 0.035       .   A
C418       O431 0.036       .   A
C419       C420 0.035       .   A
C419       H424 0.028       .   A
C420       C421 0.035       .   A
C420       C423 0.041       .   A
C421       C422 0.036       .   A
C421       O435 0.036       .   A
C422       F426 0.035       .   A
C423       O436 0.039       .   A
C423       C438 0.041       .   A
C423       H445 0.029       .   A
C425       H428 0.029       .   A
C425       H429 0.029       .   A
C425       H430 0.029       .   A
C425       O431 0.038       .   A
C427       H432 0.029       .   A
C427       H433 0.029       .   A
C427       H434 0.029       .   A
C427       O435 0.038       .   A
O436       C444 0.039       .   A
C437       C438 0.040       .   A
C437       H440 0.029       .   A
C437       H441 0.029       .   A
C437       C444 0.040       .   A
C438       H439 0.028       .   A
C438       H442 0.029       .   A
H443       C444 0.029       .   A
C388       C389 0.036       .   A
C388       C393 0.035       .   A
C389       C390 0.035       .   A
C389       O402 0.036       .   A
C390       C391 0.035       .   A
C390       H395 0.028       .   A
C391       C392 0.035       .   A
C391       C394 0.041       .   A
C392       C393 0.036       .   A
C392       O406 0.036       .   A
C393       F397 0.035       .   A
C394       O407 0.039       .   A
C394       C409 0.041       .   A
C394       H416 0.029       .   A
C396       H399 0.029       .   A
C396       H400 0.029       .   A
C396       H401 0.029       .   A
C396       O402 0.038       .   A
C398       H403 0.029       .   A
C398       H404 0.029       .   A
C398       H405 0.029       .   A
C398       O406 0.038       .   A
O407       C415 0.039       .   A
C408       C409 0.040       .   A
C408       H411 0.029       .   A
C408       H412 0.029       .   A
C408       C415 0.040       .   A
C409       H410 0.028       .   A
C409       H413 0.029       .   A
H414       C415 0.029       .   A
C359       C360 0.036       .   A
C359       C364 0.035       .   A
C360       C361 0.035       .   A
C360       O373 0.036       .   A
C361       C362 0.035       .   A
C361       H366 0.028       .   A
C362       C363 0.035       .   A
C362       C365 0.041       .   A
C363       C364 0.036       .   A
C363       O377 0.036       .   A
C364       F368 0.035       .   A
C365       O378 0.039       .   A
C365       C380 0.041       .   A
C365       H387 0.029       .   A
C367       H370 0.029       .   A
C367       H371 0.029       .   A
C367       H372 0.029       .   A
C367       O373 0.038       .   A
C369       H374 0.029       .   A
C369       H375 0.029       .   A
C369       H376 0.029       .   A
C369       O377 0.038       .   A
O378       C386 0.039       .   A
C379       C380 0.040       .   A
C379       H382 0.029       .   A
C379       H383 0.029       .   A
C379       C386 0.040       .   A
C380       H381 0.028       .   A
C380       H384 0.029       .   A
H385       C386 0.029       .   A
C330       C331 0.036       .   A
C330       C335 0.035       .   A
C331       C332 0.035       .   A
C331       O344 0.036       .   A
C332       C333 0.035       .   A
C332       H337 0.028       .   A
C333       C334 0.035       .   A
C333       C336 0.041       .   A
C334       C335 0.036       .   A
C334       O348 0.036       .   A
C335       F339 0.035       .   A
C336       O349 0.039       .   A
C336       C351 0.041       .   A
C336       H358 0.029       .   A
C338       H341 0.029       .   A
C338       H342 0.029       .   A
C338       H343 0.029       .   A
C338       O344 0.038       .   A
C340       H345 0.029       .   A
C340       H346 0.029       .   A
C340       H347 0.029       .   A
C340       O348 0.038       .   A
O349       C357 0.039       .   A
C350       C351 0.040       .   A
C350       H353 0.029       .   A
C350       H354 0.029       .   A
C350       C357 0.040       .   A
C351       H352 0.028       .   A
C351       H355 0.029       .   A
H356       C357 0.029       .   A
C301       C302 0.036       .   A
C301       C306 0.035       .   A
C302       C303 0.035       .   A
C302       O315 0.036       .   A
C303       C304 0.035       .   A
C303       H308 0.028       .   A
C304       C305 0.035       .   A
C304       C307 0.041       .   A
C305       C306 0.036       .   A
C305       O319 0.036       .   A
C306       F310 0.035       .   A
C307       O320 0.039       .   A
C307       C322 0.041       .   A
C307       H329 0.029       .   A
C309       H312 0.029       .   A
C309       H313 0.029       .   A
C309       H314 0.029       .   A
C309       O315 0.038       .   A
C311       H316 0.029       .   A
C311       H317 0.029       .   A
C311       H318 0.029       .   A
C311       O319 0.038       .   A
O320       C328 0.039       .   A
C321       C322 0.040       .   A
C321       H324 0.029       .   A
C321       H325 0.029       .   A
C321       C328 0.040       .   A
C322       H323 0.028       .   A
C322       H326 0.029       .   A
H327       C328 0.029       .   A
C272       C273 0.036       .   A
C272       C277 0.035       .   A
C273       C274 0.035       .   A
C273       O286 0.036       .   A
C274       C275 0.035       .   A
C274       H279 0.028       .   A
C275       C276 0.035       .   A
C275       C278 0.041       .   A
C276       C277 0.036       .   A
C276       O290 0.036       .   A
C277       F281 0.035       .   A
C278       O291 0.039       .   A
C278       C293 0.041       .   A
C278       H300 0.029       .   A
C280       H283 0.029       .   A
C280       H284 0.029       .   A
C280       H285 0.029       .   A
C280       O286 0.038       .   A
C282       H287 0.029       .   A
C282       H288 0.029       .   A
C282       H289 0.029       .   A
C282       O290 0.038       .   A
O291       C299 0.039       .   A
C292       C293 0.040       .   A
C292       H295 0.029       .   A
C292       H296 0.029       .   A
C292       C299 0.040       .   A
C293       H294 0.028       .   A
C293       H297 0.029       .   A
H298       C299 0.029       .   A
C243       C244 0.036       .   A
C243       C248 0.035       .   A
C244       C245 0.035       .   A
C244       O257 0.036       .   A
C245       C246 0.035       .   A
C245       H250 0.028       .   A
C246       C247 0.035       .   A
C246       C249 0.041       .   A
C247       C248 0.036       .   A
C247       O261 0.036       .   A
C248       F252 0.035       .   A
C249       O262 0.039       .   A
C249       C264 0.041       .   A
C249       H271 0.029       .   A
C251       H254 0.029       .   A
C251       H255 0.029       .   A
C251       H256 0.029       .   A
C251       O257 0.038       .   A
C253       H258 0.029       .   A
C253       H259 0.029       .   A
C253       H260 0.029       .   A
C253       O261 0.038       .   A
O262       C270 0.039       .   A
C263       C264 0.040       .   A
C263       H266 0.029       .   A
C263       H267 0.029       .   A
C263       C270 0.040       .   A
C264       H265 0.028       .   A
C264       H268 0.029       .   A
H269       C270 0.029       .   A
C214       C215 0.036       .   A
C214       C219 0.035       .   A
C215       C216 0.035       .   A
C215       O228 0.036       .   A
C216       C217 0.035       .   A
C216       H221 0.028       .   A
C217       C218 0.035       .   A
C217       C220 0.041       .   A
C218       C219 0.036       .   A
C218       O232 0.036       .   A
C219       F223 0.035       .   A
C220       O233 0.039       .   A
C220       C235 0.041       .   A
C220       H242 0.029       .   A
C222       H225 0.029       .   A
C222       H226 0.029       .   A
C222       H227 0.029       .   A
C222       O228 0.038       .   A
C224       H229 0.029       .   A
C224       H230 0.029       .   A
C224       H231 0.029       .   A
C224       O232 0.038       .   A
O233       C241 0.039       .   A
C234       C235 0.040       .   A
C234       H237 0.029       .   A
C234       H238 0.029       .   A
C234       C241 0.040       .   A
C235       H236 0.028       .   A
C235       H239 0.029       .   A
H240       C241 0.029       .   A
C185       C186 0.036       .   A
C185       C190 0.035       .   A
C186       C187 0.035       .   A
C186       O199 0.036       .   A
C187       C188 0.035       .   A
C187       H192 0.028       .   A
C188       C189 0.035       .   A
C188       C191 0.041       .   A
C189       C190 0.036       .   A
C189       O203 0.036       .   A
C190       F194 0.035       .   A
C191       O204 0.039       .   A
C191       C206 0.041       .   A
C191       H213 0.029       .   A
C193       H196 0.029       .   A
C193       H197 0.029       .   A
C193       H198 0.029       .   A
C193       O199 0.038       .   A
C195       H200 0.029       .   A
C195       H201 0.029       .   A
C195       H202 0.029       .   A
C195       O203 0.038       .   A
O204       C212 0.039       .   A
C205       C206 0.040       .   A
C205       H208 0.029       .   A
C205       H209 0.029       .   A
C205       C212 0.040       .   A
C206       H207 0.028       .   A
C206       H210 0.029       .   A
H211       C212 0.029       .   A
