data_pcu_v1-6c_Zn_1_Ch_1-9_fer_tobacco
_audit_creation_date              2021-02-03
_audit_creation_method            'tobacco_3.0'
_symmetry_space_group_name_H-M    'P1'
_symmetry_Int_Tables_number       1
_symmetry_cell_setting            triclinic
loop_
_symmetry_equiv_pos_as_xyz
  x,y,z
_cell_length_a                    30.239280715424783
_cell_length_b                    30.239280715424783
_cell_length_c                    30.239280715424783
_cell_angle_alpha                 90.0
_cell_angle_beta                  90.0
_cell_angle_gamma                 90.0
loop_
_atom_site_label
_atom_site_type_symbol
_atom_site_fract_x
_atom_site_fract_y
_atom_site_fract_z
_atom_site_charge
Zn1       Zn   -0.0370776015   -0.0370776015    0.0370776015          1.4972
Zn2       Zn    0.0370776015    0.0370776015    0.0370776015          1.4936
Zn3       Zn    0.0370776015   -0.0370776015   -0.0370776015          1.4911
Zn4       Zn   -0.0370776015    0.0370776015   -0.0370776015          1.4948
O5         O    0.0000000000    0.0000000000    0.0000000000         -2.3078
O6         O   -0.0272493254   -0.0272493254    0.0990962724         -1.2141
O7         O    0.0990962724    0.0272493254    0.0272493254         -1.2123
O8         O    0.0272493254   -0.0990962724   -0.0272493254         -1.2075
O9         O    0.0272493254    0.0272493254    0.0990962724         -1.2143
O10        O   -0.0272493254   -0.0990962724    0.0272493254         -1.2103
O11        O    0.0990962724   -0.0272493254   -0.0272493254         -1.2161
O12        O   -0.0272493254    0.0272493254   -0.0990962724           -1.21
O13        O    0.0272493254    0.0990962724    0.0272493254         -1.2176
O14        O    0.0272493254   -0.0272493254   -0.0990962724         -1.2115
O15        O   -0.0272493254    0.0990962724   -0.0272493254         -1.2162
O16        O   -0.0990962724    0.0272493254   -0.0272493254         -1.2153
O17        O   -0.0990962724   -0.0272493254    0.0272493254         -1.2131
C18        C   -0.0000000000   -0.0000000000    0.1184816542          0.3048
C19        C    0.1184816542   -0.0000000000   -0.0000000000          0.3097
C20        C   -0.0000000000   -0.1184816542    0.0000000000          0.2993
C21        C    0.0000000000    0.0000000000   -0.1184816542           0.303
C22        C    0.0000000000    0.1184816542   -0.0000000000          0.3144
C23        C   -0.1184816542    0.0000000000    0.0000000000          0.3049
Zn24      Zn    0.9629223985    0.0370776015    0.4629223985          1.4972
Zn25      Zn    1.0370776015   -0.0370776015    0.4629223985          1.4936
Zn26      Zn    1.0370776015    0.0370776015    0.5370776015          1.4911
Zn27      Zn    0.9629223985   -0.0370776015    0.5370776015          1.4948
O28        O    1.0000000000    0.0000000000    0.5000000000         -2.3078
O29        O    0.9727506746    0.0272493254    0.4009037276         -1.2141
O30        O    1.0990962724   -0.0272493254    0.4727506746         -1.2123
O31        O    1.0272493254    0.0990962724    0.5272493254         -1.2075
O32        O    1.0272493254   -0.0272493254    0.4009037276         -1.2143
O33        O    0.9727506746    0.0990962724    0.4727506746         -1.2103
O34        O    1.0990962724    0.0272493254    0.5272493254         -1.2161
O35        O    0.9727506746   -0.0272493254    0.5990962724           -1.21
O36        O    1.0272493254   -0.0990962724    0.4727506746         -1.2176
O37        O    1.0272493254    0.0272493254    0.5990962724         -1.2115
O38        O    0.9727506746   -0.0990962724    0.5272493254         -1.2162
O39        O    0.9009037276   -0.0272493254    0.5272493254         -1.2153
O40        O    0.9009037276    0.0272493254    0.4727506746         -1.2131
C41        C    1.0000000000    0.0000000000    0.3815183458          0.3048
C42        C    1.1184816542    0.0000000000    0.5000000000          0.3097
C43        C    1.0000000000    0.1184816542    0.5000000000          0.2993
C44        C    1.0000000000    0.0000000000    0.6184816542           0.303
C45        C    1.0000000000   -0.1184816542    0.5000000000          0.3144
C46        C    0.8815183458    0.0000000000    0.5000000000          0.3049
Zn47      Zn    0.9629223985    0.4629223985    0.0370776015          1.4972
Zn48      Zn    0.9629223985    0.5370776015   -0.0370776015          1.4936
Zn49      Zn    1.0370776015    0.5370776015    0.0370776015          1.4911
Zn50      Zn    1.0370776015    0.4629223985   -0.0370776015          1.4948
O51        O    1.0000000000    0.5000000000    0.0000000000         -2.3078
O52        O    0.9009037276    0.4727506746    0.0272493254         -1.2141
O53        O    0.9727506746    0.5990962724   -0.0272493254         -1.2123
O54        O    1.0272493254    0.5272493254    0.0990962724         -1.2075
O55        O    0.9009037276    0.5272493254   -0.0272493254         -1.2143
O56        O    0.9727506746    0.4727506746    0.0990962724         -1.2103
O57        O    1.0272493254    0.5990962724    0.0272493254         -1.2161
O58        O    1.0990962724    0.4727506746   -0.0272493254           -1.21
O59        O    0.9727506746    0.5272493254   -0.0990962724         -1.2176
O60        O    1.0990962724    0.5272493254    0.0272493254         -1.2115
O61        O    1.0272493254    0.4727506746   -0.0990962724         -1.2162
O62        O    1.0272493254    0.4009037276   -0.0272493254         -1.2153
O63        O    0.9727506746    0.4009037276    0.0272493254         -1.2131
C64        C    0.8815183458    0.5000000000    0.0000000000          0.3048
C65        C    1.0000000000    0.6184816542    0.0000000000          0.3097
C66        C    1.0000000000    0.5000000000    0.1184816542          0.2993
C67        C    1.1184816542    0.5000000000    0.0000000000           0.303
C68        C    1.0000000000    0.5000000000   -0.1184816542          0.3144
C69        C    1.0000000000    0.3815183458    0.0000000000          0.3049
Zn70      Zn    0.9629223985    0.4629223985    0.5370776015          1.4972
Zn71      Zn    1.0370776015    0.4629223985    0.4629223985          1.4936
Zn72      Zn    0.9629223985    0.5370776015    0.4629223985          1.4911
Zn73      Zn    1.0370776015    0.5370776015    0.5370776015          1.4948
O74        O    1.0000000000    0.5000000000    0.5000000000         -2.3078
O75        O    0.9727506746    0.4009037276    0.5272493254         -1.2141
O76        O    1.0272493254    0.4727506746    0.4009037276         -1.2123
O77        O    0.9009037276    0.5272493254    0.4727506746         -1.2075
O78        O    1.0272493254    0.4009037276    0.4727506746         -1.2143
O79        O    0.9009037276    0.4727506746    0.5272493254         -1.2103
O80        O    0.9727506746    0.5272493254    0.4009037276         -1.2161
O81        O    1.0272493254    0.5990962724    0.5272493254           -1.21
O82        O    1.0990962724    0.4727506746    0.4727506746         -1.2176
O83        O    0.9727506746    0.5990962724    0.4727506746         -1.2115
O84        O    1.0990962724    0.5272493254    0.5272493254         -1.2162
O85        O    1.0272493254    0.5272493254    0.5990962724         -1.2153
O86        O    0.9727506746    0.4727506746    0.5990962724         -1.2131
C87        C    1.0000000000    0.3815183458    0.5000000000          0.3048
C88        C    1.0000000000    0.5000000000    0.3815183458          0.3097
C89        C    0.8815183458    0.5000000000    0.5000000000          0.2993
C90        C    1.0000000000    0.6184816542    0.5000000000           0.303
C91        C    1.1184816542    0.5000000000    0.5000000000          0.3144
C92        C    1.0000000000    0.5000000000    0.6184816542          0.3049
Zn93      Zn    0.4629223985    0.9629223985   -0.0370776015          1.4972
Zn94      Zn    0.4629223985    1.0370776015    0.0370776015          1.4936
Zn95      Zn    0.5370776015    0.9629223985    0.0370776015          1.4911
Zn96      Zn    0.5370776015    1.0370776015   -0.0370776015          1.4948
O97        O    0.5000000000    1.0000000000    0.0000000000         -2.3078
O98        O    0.4009037276    0.9727506746   -0.0272493254         -1.2141
O99        O    0.4727506746    1.0272493254    0.0990962724         -1.2123
O100       O    0.5272493254    0.9009037276    0.0272493254         -1.2075
O101       O    0.4009037276    1.0272493254    0.0272493254         -1.2143
O102       O    0.4727506746    0.9009037276   -0.0272493254         -1.2103
O103       O    0.5272493254    0.9727506746    0.0990962724         -1.2161
O104       O    0.5990962724    1.0272493254   -0.0272493254           -1.21
O105       O    0.4727506746    1.0990962724    0.0272493254         -1.2176
O106       O    0.5990962724    0.9727506746    0.0272493254         -1.2115
O107       O    0.5272493254    1.0990962724   -0.0272493254         -1.2162
O108       O    0.5272493254    1.0272493254   -0.0990962724         -1.2153
O109       O    0.4727506746    0.9727506746   -0.0990962724         -1.2131
C110       C    0.3815183458    1.0000000000    0.0000000000          0.3048
C111       C    0.5000000000    1.0000000000    0.1184816542          0.3097
C112       C    0.5000000000    0.8815183458    0.0000000000          0.2993
C113       C    0.6184816542    1.0000000000    0.0000000000           0.303
C114       C    0.5000000000    1.1184816542    0.0000000000          0.3144
C115       C    0.5000000000    1.0000000000   -0.1184816542          0.3049
Zn116     Zn    0.4629223985    1.0370776015    0.5370776015          1.4972
Zn117     Zn    0.4629223985    0.9629223985    0.4629223985          1.4936
Zn118     Zn    0.5370776015    1.0370776015    0.4629223985          1.4911
Zn119     Zn    0.5370776015    0.9629223985    0.5370776015          1.4948
O120       O    0.5000000000    1.0000000000    0.5000000000         -2.3078
O121       O    0.4009037276    1.0272493254    0.5272493254         -1.2141
O122       O    0.4727506746    0.9727506746    0.4009037276         -1.2123
O123       O    0.5272493254    1.0990962724    0.4727506746         -1.2075
O124       O    0.4009037276    0.9727506746    0.4727506746         -1.2143
O125       O    0.4727506746    1.0990962724    0.5272493254         -1.2103
O126       O    0.5272493254    1.0272493254    0.4009037276         -1.2161
O127       O    0.5990962724    0.9727506746    0.5272493254           -1.21
O128       O    0.4727506746    0.9009037276    0.4727506746         -1.2176
O129       O    0.5990962724    1.0272493254    0.4727506746         -1.2115
O130       O    0.5272493254    0.9009037276    0.5272493254         -1.2162
O131       O    0.5272493254    0.9727506746    0.5990962724         -1.2153
O132       O    0.4727506746    1.0272493254    0.5990962724         -1.2131
C133       C    0.3815183458    1.0000000000    0.5000000000          0.3048
C134       C    0.5000000000    1.0000000000    0.3815183458          0.3097
C135       C    0.5000000000    1.1184816542    0.5000000000          0.2993
C136       C    0.6184816542    1.0000000000    0.5000000000           0.303
C137       C    0.5000000000    0.8815183458    0.5000000000          0.3144
C138       C    0.5000000000    1.0000000000    0.6184816542          0.3049
Zn139     Zn    0.4629223985    0.5370776015   -0.0370776015          1.4972
Zn140     Zn    0.4629223985    0.4629223985    0.0370776015          1.4936
Zn141     Zn    0.5370776015    0.4629223985   -0.0370776015          1.4911
Zn142     Zn    0.5370776015    0.5370776015    0.0370776015          1.4948
O143       O    0.5000000000    0.5000000000    0.0000000000         -2.3078
O144       O    0.4009037276    0.5272493254   -0.0272493254         -1.2141
O145       O    0.4727506746    0.4009037276    0.0272493254         -1.2123
O146       O    0.5272493254    0.4727506746   -0.0990962724         -1.2075
O147       O    0.4009037276    0.4727506746    0.0272493254         -1.2143
O148       O    0.4727506746    0.5272493254   -0.0990962724         -1.2103
O149       O    0.5272493254    0.4009037276   -0.0272493254         -1.2161
O150       O    0.5990962724    0.5272493254    0.0272493254           -1.21
O151       O    0.4727506746    0.4727506746    0.0990962724         -1.2176
O152       O    0.5990962724    0.4727506746   -0.0272493254         -1.2115
O153       O    0.5272493254    0.5272493254    0.0990962724         -1.2162
O154       O    0.5272493254    0.5990962724    0.0272493254         -1.2153
O155       O    0.4727506746    0.5990962724   -0.0272493254         -1.2131
C156       C    0.3815183458    0.5000000000    0.0000000000          0.3048
C157       C    0.5000000000    0.3815183458    0.0000000000          0.3097
C158       C    0.5000000000    0.5000000000   -0.1184816542          0.2993
C159       C    0.6184816542    0.5000000000    0.0000000000           0.303
C160       C    0.5000000000    0.5000000000    0.1184816542          0.3144
C161       C    0.5000000000    0.6184816542    0.0000000000          0.3049
Zn162     Zn    0.4629223985    0.5370776015    0.4629223985          1.4972
Zn163     Zn    0.4629223985    0.4629223985    0.5370776015          1.4936
Zn164     Zn    0.5370776015    0.4629223985    0.4629223985          1.4911
Zn165     Zn    0.5370776015    0.5370776015    0.5370776015          1.4948
O166       O    0.5000000000    0.5000000000    0.5000000000         -2.3078
O167       O    0.4009037276    0.5272493254    0.4727506746         -1.2141
O168       O    0.4727506746    0.4009037276    0.5272493254         -1.2123
O169       O    0.5272493254    0.4727506746    0.4009037276         -1.2075
O170       O    0.4009037276    0.4727506746    0.5272493254         -1.2143
O171       O    0.4727506746    0.5272493254    0.4009037276         -1.2103
O172       O    0.5272493254    0.4009037276    0.4727506746         -1.2161
O173       O    0.5990962724    0.5272493254    0.5272493254           -1.21
O174       O    0.4727506746    0.4727506746    0.5990962724         -1.2176
O175       O    0.5990962724    0.4727506746    0.4727506746         -1.2115
O176       O    0.5272493254    0.5272493254    0.5990962724         -1.2162
O177       O    0.5272493254    0.5990962724    0.5272493254         -1.2153
O178       O    0.4727506746    0.5990962724    0.4727506746         -1.2131
C179       C    0.3815183458    0.5000000000    0.5000000000          0.3048
C180       C    0.5000000000    0.3815183458    0.5000000000          0.3097
C181       C    0.5000000000    0.5000000000    0.3815183458          0.2993
C182       C    0.6184816542    0.5000000000    0.5000000000           0.303
C183       C    0.5000000000    0.5000000000    0.6184816542          0.3144
C184       C    0.5000000000    0.6184816542    0.5000000000          0.3049
C576       C    0.5000000000    0.5000000000   -0.3305912086          0.5303
C577       C    0.5064836962    0.5390713547   -0.3096493515           0.524
C578       C    0.5152392858    0.5406619776   -0.2662966795          0.5199
C579       C    0.5171386569    0.5035334203   -0.2416352277          0.5229
C580       C    0.5098349299    0.4643514622   -0.2625268860            0.53
C581       C    0.5020042068    0.4615119624   -0.3069087462         -0.4669
N582       N    0.5296070846    0.5058776686   -0.1977670689          0.5152
F583       F    0.5223202858    0.5805335563   -0.2473859101          0.5127
H584       H    0.5051588791    0.5704815227   -0.3272367379          0.5216
C585       C    0.4952919282    0.4156767203   -0.3262360518         -0.4597
N586       N    0.5111291463    0.4252648800   -0.2359103874         -0.4661
H587       H    0.4866405627    0.4145247448   -0.3610984875         -0.4549
H588       H    0.5258320223    0.3963249795   -0.3223888116          0.5117
H589       H    0.4683350109    0.3983399533   -0.3092846181         -0.4303
H590       H    0.5152387617    0.3946540198   -0.2484296762          0.5302
H591       H    0.5191104076    0.4283544717   -0.2033926127          0.5294
N592       N    0.5000000000    0.5000000000   -0.1694087914         -0.4522
C559       C    0.5000000000    0.5000000000    0.3305912086          0.5303
C560       C    0.4921747415    0.5388249199    0.3096493515           0.524
C561       C    0.4833695719    0.5401131040    0.2662966795          0.5199
C562       C    0.4827498352    0.5029411616    0.2416352277          0.5229
C563       C    0.4913984467    0.4640339413    0.2625268860            0.53
C564       C    0.4993223030    0.4614657735    0.3069087462         -0.4669
N565       N    0.4702080785    0.5048546740    0.1977670689          0.5152
F566       F    0.4749198083    0.5797172054    0.2473859101          0.5127
H567       H    0.4924171754    0.5702620797    0.3272367379          0.5216
C568       C    0.5076089203    0.4158888487    0.3262360518         -0.4597
N569       N    0.4914509297    0.4249259735    0.2359103874         -0.4661
H570       H    0.5162948230    0.4150354630    0.3610984875         -0.4549
H571       H    0.4777533079    0.3954969476    0.3223888116          0.5117
H572       H    0.5351468360    0.3994906146    0.3092846181         -0.4303
H573       H    0.4883978251    0.3941917539    0.2484296762          0.5302
H574       H    0.4833680128    0.4277389012    0.2033926127          0.5294
N575       N    0.5000000000    0.5000000000    0.1694087914         -0.4522
C542       C    0.5000000000    0.8305912086    0.5000000000          0.5303
C543       C    0.4943185420    0.8096493515    0.5391960471           0.524
C544       C    0.5021782642    0.7662966795    0.5433691990          0.5199
C545       C    0.5152576019    0.7416352277    0.5085687923          0.5229
C546       C    0.5201912876    0.7625268860    0.4690184571            0.53
C547       C    0.5135918685    0.8069087462    0.4639360707         -0.4669
N548       N    0.5264262526    0.6977670689    0.5145869674          0.5152
F549       F    0.4968230398    0.7473859101    0.5835090161          0.5127
H550       H    0.4835223462    0.8272367379    0.5687222380          0.5216
C551       C    0.5211085606    0.8262360518    0.4182258591         -0.4597
N552       N    0.5332883367    0.7359103874    0.4321687189         -0.4661
H553       H    0.5132150033    0.8610984875    0.4145022954         -0.4549
H554       H    0.5560816498    0.8223888116    0.4090568759          0.5117
H555       H    0.5006856092    0.8092846181    0.3935248077         -0.4303
H556       H    0.5464953379    0.7484296762    0.4042493919          0.5302
H557       H    0.5399552819    0.7033926127    0.4375350911          0.5294
N558       N    0.5000000000    0.6694087914    0.5000000000         -0.4522
C525       C    0.5000000000    1.1694087914    0.5000000000          0.5303
C526       C    0.4652088273    1.1903506485    0.5189257332           0.524
C527       C    0.4585682863    1.2337033205    0.5130017443          0.5199
C528       C    0.4866704582    1.2583647723    0.4886623665          0.5229
C529       C    0.5220533203    1.2374731140    0.4703150685            0.53
C530       C    0.5291094363    1.1930912538    0.4747416033         -0.4669
N531       N    0.4771516006    1.3022329311    0.4802749628          0.5152
F532       F    0.4227787792    1.2526140899    0.5319488953          0.5127
H533       H    0.4412613347    1.1727632621    0.5392941251          0.5216
C534       C    0.5693736181    1.1737639482    0.4518348408         -0.4597
N535       N    0.5520714211    1.2640896126    0.4452481675         -0.4661
H536       H    0.5756042267    1.1389015125    0.4579465255         -0.4549
H537       H    0.5658410903    1.1776111884    0.4158527832          0.5117
H538       H    0.5996255002    1.1907153819    0.4624207990         -0.4303
H539       H    0.5736755256    1.2515703238    0.4231760953          0.5302
H540       H    0.5447255294    1.2966073873    0.4408568142          0.5294
N541       N    0.5000000000    1.3305912086    0.5000000000         -0.4522
C508       C    0.5000000000    0.6694087914    0.0000000000          0.5303
C509       C    0.4605692618    0.6903506485    0.0037183270           0.524
C510       C    0.4567935437    0.7337033205   -0.0043398603          0.5191
C511       C    0.4922033046    0.7583647723   -0.0156662107          0.5229
C512       C    0.5319505724    0.7374731140   -0.0186200166            0.53
C513       C    0.5366972867    0.6930912538   -0.0117751873         -0.4669
N514       N    0.4867499920    0.8022329311   -0.0271212783          0.5152
F515       F    0.4164364918    0.7526140899   -0.0009944587          0.5127
H516       H    0.4305410836    0.6727632621    0.0130275864          0.5216
C517       C    0.5827256589    0.6737639482   -0.0170013767         -0.4597
N518       N    0.5694079953    0.7640896126   -0.0298617858         -0.4661
H519       H    0.5860506605    0.6389015125   -0.0089318329         -0.4549
H520       H    0.5936285257    0.6776111884   -0.0514733177          0.5117
H521       H    0.6063767394    0.6907153819    0.0046288168         -0.4303
H522       H    0.5979516213    0.7515703238   -0.0416590362          0.5302
H523       H    0.5643810189    0.7966073873   -0.0367882292          0.5294
N524       N    0.5000000000    0.8305912086    0.0000000000         -0.4522
C491       C    0.5000000000    1.3305912086    0.0000000000          0.5303
C492       C    0.4800954828    1.3096493515    0.0342406085           0.524
C493       C    0.4858288191    1.2662966795    0.0410464357          0.5199
C494       C    0.5109551595    1.2416352277    0.0136456256          0.5229
C495       C    0.5302982495    1.2625268860   -0.0212028340            0.53
C496       C    0.5260735476    1.3069087462   -0.0283816138         -0.4669
N497       N    0.5190693149    1.1977670689    0.0233984546          0.5152
F498       F    0.4658745881    1.2473859101    0.0762843700          0.5127
H499       H    0.4590563245    1.3272367379    0.0576009941          0.5216
C500       C    0.5501126634    1.3262360518   -0.0679801619         -0.4597
N501       N    0.5562061406    1.2359103874   -0.0504981764         -0.4661
H502       H    0.5441800845    1.3610984875   -0.0743815431         -0.4549
H503       H    0.5859801030    1.3223888116   -0.0634288984          0.5117
H504       H    0.5403886557    1.3092846181   -0.0985200138         -0.4303
H505       H    0.5788818551    1.2484296762   -0.0714678134          0.5302
H506       H    0.5603874594    1.2033926127   -0.0430307349          0.5294
N507       N    0.5000000000    1.1694087914    0.0000000000         -0.4522
C474       C    0.5000000000    1.0000000000   -0.3305912086          0.5303
C475       C    0.4929503064    0.9610267926   -0.3096493515           0.524
C476       C    0.4841725678    0.9595633255   -0.2662966795          0.5199
C477       C    0.4828118982    0.9967155254   -0.2416352277          0.5229
C478       C    0.4906831405    1.0357874311   -0.2625268860            0.53
C479       C    0.4985542232    1.0385130577   -0.3069087462         -0.4669
N480       N    0.4703107816    0.9945523621   -0.1977670689          0.5152
F481       F    0.4765140270    0.9197986414   -0.2473859101          0.5127
H482       H    0.4938194202    0.9296007137   -0.3272367379          0.5216
C483       C    0.5059305766    1.0842461258   -0.3262360518         -0.4597
N484       N    0.4899559605    1.0748886729   -0.2359103874         -0.4661
H485       H    0.5145977401    1.0852725032   -0.3610984875         -0.4549
H486       H    0.4756743668    1.1040387756   -0.3223888116          0.5117
H487       H    0.5331361059    1.1011900940   -0.3092846181         -0.4303
H488       H    0.4862907483    1.1055559180   -0.2484296762          0.5302
H489       H    0.4819307281    1.0719151640   -0.2033926127          0.5294
N490       N    0.5000000000    1.0000000000   -0.1694087914         -0.4522
C457       C    0.5000000000    1.0000000000    0.1694087914          0.5303
C458       C    0.4612769549    1.0083147370    0.1903506485           0.524
C459       C    0.4601000244    1.0171354663    0.2337033205          0.5199
C460       C    0.4972768283    1.0172859178    0.2583647723          0.5229
C461       C    0.5360717737    1.0081468544    0.2374731140            0.53
C462       C    0.5385397110    1.0001912105    0.1930912538         -0.4669
N463       N    0.4955217878    1.0298508302    0.3022329311          0.5152
F464       F    0.4206057433    1.0260844945    0.2526140899          0.5127
H465       H    0.4298392396    1.0084691658    0.1727632621          0.5216
C466       C    0.5840083991    0.9913299183    0.1737639482         -0.4597
N467       N    0.5751759630    1.0076007006    0.2640896126         -0.4661
H468       H    0.5847520714    0.9826339351    0.1389015125         -0.4549
H469       H    0.6047755544    1.0209257370    0.1776111884          0.5117
H470       H    0.6000577049    0.9635871955    0.1907153819         -0.4303
H471       H    0.6059462742    1.0102655920    0.2515703238          0.5302
H472       H    0.5724652932    1.0157184822    0.2966073873          0.5294
N473       N    0.5000000000    1.0000000000    0.3305912086         -0.4522
C440       C    0.6694087914    0.5000000000    0.5000000000          0.5303
C441       C    0.6903506485    0.5356980512    0.4828460439           0.524
C442       C    0.7337033205    0.5347760558    0.4739950352          0.5199
C443       C    0.7583647723    0.4985983276    0.4825571237          0.5229
C444       C    0.7374731140    0.4630234680    0.5005293142            0.53
C445       C    0.6930912538    0.4624877354    0.5088417131         -0.4669
N446       N    0.8022329311    0.4973613148    0.4699306836          0.5152
F447       F    0.7526140899    0.5710753087    0.4560437793          0.5127
H448       H    0.6727632621    0.5662249459    0.4753318906          0.5216
C449       C    0.6737639482    0.4203597416    0.5281071286         -0.4597
N450       N    0.7640896126    0.4251351512    0.5102201013         -0.4661
H451       H    0.6389015125    0.4216737206    0.5367353748         -0.4549
H452       H    0.6776111884    0.3932377894    0.5041992442          0.5117
H453       H    0.6907153819    0.4112554529    0.5588374200         -0.4303
H454       H    0.7515703238    0.3945966903    0.5148370384          0.5302
H455       H    0.7966073873    0.4258688836    0.5016932175          0.5294
N456       N    0.8305912086    0.5000000000    0.5000000000         -0.4522
C423       C    1.1694087914    0.5000000000    0.5000000000          0.5303
C424       C    1.1903506485    0.5302528625    0.4744388306           0.524
C425       C    1.2337033205    0.5271398405    0.4661021931          0.5199
C426       C    1.2583647723    0.4942671411    0.4834666111          0.5229
C427       C    1.2374731140    0.4643388064    0.5097889411            0.53
C428       C    1.1930912538    0.4659055953    0.5179699041         -0.4669
N429       N    1.3022329311    0.4899020080    0.4715543148          0.5152
F430       F    1.2526140899    0.5577746536    0.4396183948          0.5127
H431       H    1.1727632621    0.5579183502    0.4595064970          0.5216
C432       C    1.1737639482    0.4299581423    0.5471881300         -0.4597
N433       N    1.2640896126    0.4300933890    0.5286751078         -0.4661
H434       H    1.1389015125    0.4333947259    0.5552107895         -0.4549
H435       H    1.1776111884    0.3977056428    0.5308491124          0.5117
H436       H    1.1907153819    0.4288545356    0.5792196915         -0.4303
H437       H    1.2515703238    0.4016898607    0.5408057828          0.5302
H438       H    1.2966073873    0.4286644585    0.5202368457          0.5294
N439       N    1.3305912086    0.5000000000    0.5000000000         -0.4522
C406       C    0.6694087914    0.5000000000    0.0000000000          0.5303
C407       C    0.6903506485    0.5387674985   -0.0081049452           0.524
C408       C    0.7337033205    0.5399921724   -0.0169191725          0.5199
C409       C    0.7583647723    0.5028167282   -0.0172709195          0.5229
C410       C    0.7374731140    0.4639728671   -0.0083420494            0.53
C411       C    0.6930912538    0.4614618893   -0.0003998850         -0.4669
N412       N    0.8022329311    0.5046397770   -0.0298261449          0.5152
F413       F    0.7526140899    0.5795343301   -0.0256542236          0.5127
H414       H    0.6727632621    0.5702055891   -0.0080891489          0.5216
C415       C    0.6737639482    0.4159458873    0.0082150824         -0.4597
N416       N    0.7640896126    0.4248662938   -0.0080076372         -0.4661
H417       H    0.6389015125    0.4151551407    0.0169069114         -0.4549
H418       H    0.6776111884    0.3953392861   -0.0214927484          0.5117
H419       H    0.6907153819    0.3997466010    0.0358704978         -0.4303
H420       H    0.7515703238    0.3941108629   -0.0108390987          0.5302
H421       H    0.7966073873    0.4276208784   -0.0161106227          0.5294
N422       N    0.8305912086    0.5000000000    0.0000000000         -0.4522
C389       C    1.3305912086    0.5000000000    0.0000000000          0.5303
C390       C    1.3096493515    0.5101579906   -0.0382808608           0.524
C391       C    1.2662966795    0.5190249298   -0.0390343990          0.5199
C392       C    1.2416352277    0.5173964152   -0.0018929758          0.5229
C393       C    1.2625268860    0.5064116022    0.0364202616            0.53
C394       C    1.3069087462    0.4983469869    0.0385047196         -0.4669
N395       N    1.1977670689    0.5300309099   -0.0030448144          0.5152
F396       F    1.2473859101    0.5298533862   -0.0780552636          0.5127
H397       H    1.3272367379    0.5118164388   -0.0696751810          0.5216
C398       C    1.3262360518    0.4873203093    0.0834973466         -0.4597
N399       N    1.2359103874    0.5039950608    0.0754535324         -0.4661
H400       H    1.3610984875    0.4785987033    0.0838240915         -0.4549
H401       H    1.3223888116    0.5158885880    0.1056567841          0.5117
H402       H    1.3092846181    0.4588414516    0.0982008683         -0.4303
H403       H    1.2484296762    0.5051846369    0.1063161086          0.5302
H404       H    1.2033926127    0.5122332420    0.0731343776          0.5294
N405       N    1.1694087914    0.5000000000    0.0000000000         -0.4522
C372       C    1.0000000000    0.5000000000   -0.1694087914          0.5303
C373       C    0.9612769549    0.4916852630   -0.1903506485           0.524
C374       C    0.9601000244    0.4828645337   -0.2337033205          0.5199
C375       C    0.9972768283    0.4827140822   -0.2583647723          0.5229
C376       C    1.0360717737    0.4918531456   -0.2374731140            0.53
C377       C    1.0385397110    0.4998087895   -0.1930912538         -0.4669
N378       N    0.9955217878    0.4701491698   -0.3022329311          0.5152
F379       F    0.9206057433    0.4739155055   -0.2526140899          0.5127
H380       H    0.9298392396    0.4915308342   -0.1727632621          0.5216
C381       C    1.0840083991    0.5086700817   -0.1737639482         -0.4597
N382       N    1.0751759630    0.4923992994   -0.2640896126         -0.4661
H383       H    1.0847520714    0.5173660649   -0.1389015125         -0.4549
H384       H    1.1047755544    0.4790742630   -0.1776111884          0.5117
H385       H    1.1000577049    0.5364128045   -0.1907153819         -0.4303
H386       H    1.1059462742    0.4897344080   -0.2515703238          0.5302
H387       H    1.0724652932    0.4842815178   -0.2966073873          0.5294
N388       N    1.0000000000    0.5000000000   -0.3305912086         -0.4522
C355       C    1.0000000000    0.5000000000    0.1694087914          0.5303
C356       C    0.9612769549    0.5083147370    0.1903506485           0.524
C357       C    0.9601000244    0.5171354663    0.2337033205          0.5199
C358       C    0.9972768283    0.5172859178    0.2583647723          0.5229
C359       C    1.0360717737    0.5081468544    0.2374731140            0.53
C360       C    1.0385397110    0.5001912105    0.1930912538         -0.4669
N361       N    0.9955217878    0.5298508302    0.3022329311          0.5152
F362       F    0.9206057433    0.5260844945    0.2526140899          0.5127
H363       H    0.9298392396    0.5084691658    0.1727632621          0.5216
C364       C    1.0840083991    0.4913299183    0.1737639482         -0.4597
N365       N    1.0751759630    0.5076007006    0.2640896126         -0.4661
H366       H    1.0847520714    0.4826339351    0.1389015125         -0.4549
H367       H    1.1047755544    0.5209257370    0.1776111884          0.5117
H368       H    1.1000577049    0.4635871955    0.1907153819         -0.4303
H369       H    1.1059462742    0.5102655920    0.2515703238          0.5302
H370       H    1.0724652932    0.5157184822    0.2966073873          0.5294
N371       N    1.0000000000    0.5000000000    0.3305912086         -0.4522
C338       C    1.0000000000   -0.3305912086    0.5000000000          0.5303
C339       C    0.9851664446   -0.3096493515    0.5367229453           0.524
C340       C    0.9762745683   -0.2662966795    0.5363694398          0.5199
C341       C    0.9825031721   -0.2416352277    0.4997178112          0.5229
C342       C    0.9981611696   -0.2625268860    0.4630654254            0.53
C343       C    1.0064222241   -0.3069087462    0.4619986721         -0.4669
N344       N    0.9698234421   -0.1977670689    0.4992916193          0.5152
F345       F    0.9606838346   -0.2473859101    0.5737433928          0.5127
H346       H    0.9796218878   -0.3272367379    0.5676682467          0.5216
C347       C    1.0229512943   -0.3262360518    0.4187238071         -0.4597
N348       N    1.0054066532   -0.2359103874    0.4246344630         -0.4661
H349       H    1.0316459579   -0.3610984875    0.4194827524         -0.4549
H350       H    0.9973562305   -0.3223888116    0.3931879513          0.5117
H351       H    1.0530357430   -0.3092846181    0.4076709873         -0.4303
H352       H    1.0080591960   -0.2484296762    0.3938630848          0.5302
H353       H    0.9969442288   -0.2033926127    0.4259125405          0.5294
N354       N    1.0000000000   -0.1694087914    0.5000000000         -0.4522
C321       C    1.0000000000    0.3305912086    0.5000000000          0.5303
C322       C    0.9851664446    0.3096493515    0.4632770547           0.524
C323       C    0.9762745683    0.2662966795    0.4636305602          0.5199
C324       C    0.9825031721    0.2416352277    0.5002821888          0.5229
C325       C    0.9981611696    0.2625268860    0.5369345746            0.53
C326       C    1.0064222241    0.3069087462    0.5380013279         -0.4669
N327       N    0.9698234421    0.1977670689    0.5007083807          0.5152
F328       F    0.9606838346    0.2473859101    0.4262566072          0.5127
H329       H    0.9796218878    0.3272367379    0.4323317533          0.5216
C330       C    1.0229512943    0.3262360518    0.5812761929         -0.4597
N331       N    1.0054066532    0.2359103874    0.5753655370         -0.4661
H332       H    1.0316459579    0.3610984875    0.5805172476         -0.4549
H333       H    0.9973562305    0.3223888116    0.6068120487          0.5117
H334       H    1.0530357430    0.3092846181    0.5923290127         -0.4303
H335       H    1.0080591960    0.2484296762    0.6061369152          0.5302
H336       H    0.9969442288    0.2033926127    0.5740874595          0.5294
N337       N    1.0000000000    0.1694087914    0.5000000000         -0.4522
C304       C    0.8305912086    0.0000000000    0.5000000000          0.5303
C305       C    0.8096493515    0.0206228863    0.5338128028           0.524
C306       C    0.7662966795    0.0150344956    0.5407381418          0.5199
C307       C    0.7416352277   -0.0106646651    0.5138738436          0.5229
C308       C    0.7625268860   -0.0307390808    0.4794414736            0.53
C309       C    0.8069087462   -0.0266668612    0.4721751119         -0.4669
N310       N    0.6977670689   -0.0185711344    0.5237957857          0.5152
F311       F    0.7473859101    0.0357281377    0.5755469988          0.5127
H312       H    0.8272367379    0.0421504840    0.5567238554          0.5216
C313       C    0.8262360518   -0.0515365285    0.4330928429         -0.4597
N314       N    0.7359103874   -0.0572596108    0.4506995636         -0.4661
H315       H    0.8610984875   -0.0457404020    0.4265676540         -0.4549
H316       H    0.8223888116   -0.0872999005    0.4384002384          0.5117
H317       H    0.8092846181   -0.0424593707    0.4023545266         -0.4303
H318       H    0.7484296762   -0.0803729323    0.4302132738          0.5302
H319       H    0.7033926127   -0.0612823634    0.4582536069          0.5294
N320       N    0.6694087914    0.0000000000    0.5000000000         -0.4522
C287       C    1.1694087914    0.0000000000    0.5000000000          0.5303
C288       C    1.1903506485    0.0102767837    0.5382491411           0.524
C289       C    1.2337033205    0.0191460195    0.5389751484          0.5199
C290       C    1.2583647723    0.0174022080    0.5018389599          0.5229
C291       C    1.2374731140    0.0062985054    0.4635600093            0.53
C292       C    1.1930912538   -0.0017725421    0.4615005977         -0.4669
N293       N    1.3022329311    0.0300402178    0.5029515695          0.5152
F294       F    1.2526140899    0.0300955631    0.5779622083          0.5127
H295       H    1.1727632621    0.0120326868    0.5696381614          0.5216
C296       C    1.1737639482   -0.0129388452    0.4165424196         -0.4597
N297       N    1.2640896126    0.0037607978    0.4245344286         -0.4661
H298       H    1.1389015125   -0.0216614235    0.4162427523         -0.4549
H299       H    1.1776111884    0.0155605024    0.3942943993          0.5117
H300       H    1.1907153819   -0.0414632123    0.4019273807         -0.4303
H301       H    1.2515703238    0.0048545560    0.3936683081          0.5302
H302       H    1.2966073873    0.0120061391    0.4268279970          0.5294
N303       N    1.3305912086    0.0000000000    0.5000000000         -0.4522
C270       C    0.0000000000   -0.3305912086    0.0000000000          0.5303
C271       C   -0.0186234780   -0.3096493515    0.0349539002           0.524
C272       C   -0.0274284944   -0.2662966795    0.0336646692          0.5199
C273       C   -0.0173695078   -0.2416352277   -0.0021257509          0.5229
C274       C    0.0020663745   -0.2625268860   -0.0369225431            0.53
C275       C    0.0103938605   -0.3069087462   -0.0371121752         -0.4669
N276       N   -0.0299335917   -0.1977670689   -0.0038867128          0.5152
F277       F   -0.0468735811   -0.2473859101    0.0691860986          0.5127
H278       H   -0.0274004688   -0.3272367379    0.0651419480          0.5216
C279       C    0.0313943347   -0.3262360518   -0.0784026606         -0.4597
N280       N    0.0133242113   -0.2359103874   -0.0743751400         -0.4661
H281       H    0.0399604822   -0.3610984875   -0.0767310476         -0.4549
H282       H    0.0086348830   -0.3223888116   -0.1064952678          0.5117
H283       H    0.0624766134   -0.3092846181   -0.0862212817         -0.4303
H284       H    0.0192069726   -0.2484296762   -0.1046952129          0.5302
H285       H    0.0047741928   -0.2033926127   -0.0739965978          0.5294
N286       N   -0.0000000000   -0.1694087914    0.0000000000         -0.4522
C253       C    0.0000000000    0.3305912086    0.0000000000          0.5303
C254       C    0.0354091684    0.3096493515   -0.0177426004           0.524
C255       C    0.0343407675    0.2662966795   -0.0265771320          0.5199
C256       C   -0.0016902539    0.2416352277   -0.0174172805          0.5229
C257       C   -0.0369627014    0.2625268860    0.0011414026            0.53
C258       C   -0.0373607456    0.3069087462    0.0094615315         -0.4669
N259       N   -0.0031361328    0.1977670689   -0.0300215109          0.5152
F260       F    0.0703378555    0.2473859101   -0.0451268759          0.5127
H261       H    0.0658074796    0.3272367379   -0.0257611084          0.5216
C262       C   -0.0791640193    0.3262360518    0.0294217521         -0.4597
N263       N   -0.0746853909    0.2359103874    0.0114581174         -0.4661
H264       H   -0.0777073764    0.3610984875    0.0380270623         -0.4549
H265       H   -0.1066780587    0.3223888116    0.0059661588          0.5117
H266       H   -0.0877583082    0.3092846181    0.0602985569         -0.4303
H267       H   -0.1051432312    0.2484296762    0.0165799979          0.5302
H268       H   -0.0740929248    0.2033926127    0.0029202550          0.5294
N269       N    0.0000000000    0.1694087914    0.0000000000         -0.4522
C236       C   -0.1694087914    0.0000000000    0.0000000000          0.5303
C237       C   -0.1903506485   -0.0130503041    0.0373938315           0.524
C238       C   -0.2337033205   -0.0219488924    0.0374683650          0.5199
C239       C   -0.2583647723   -0.0174901534    0.0005595988          0.5229
C240       C   -0.2374731140   -0.0036129678   -0.0368034042            0.53
C241       C   -0.1930912538    0.0045872254   -0.0382662155         -0.4669
N242       N   -0.3022329311   -0.0301757082    0.0007436962          0.5152
F243       F   -0.2526140899   -0.0357241904    0.0755488654          0.5127
H244       H   -0.1727632621   -0.0171002176    0.0685699762          0.5216
C245       C   -0.1737639482    0.0190159861   -0.0822859266         -0.4597
N246       N   -0.2640896126    0.0017759024   -0.0755383494         -0.4661
H247       H   -0.1389015125    0.0277370884   -0.0819460050         -0.4549
H248       H   -0.1776111884   -0.0077775373   -0.1065613118          0.5117
H249       H   -0.1907153819    0.0485340696   -0.0947727847         -0.4303
H250       H   -0.2515703238    0.0029455125   -0.1064016887          0.5302
H251       H   -0.2966073873   -0.0066152646   -0.0738547742          0.5294
N252       N   -0.3305912086    0.0000000000    0.0000000000         -0.4522
C219       C    0.1694087914   -0.0000000000    0.0000000000          0.5303
C220       C    0.1903506485   -0.0146822277   -0.0367837092           0.524
C221       C    0.2337033205   -0.0235754842   -0.0364668178          0.5199
C222       C    0.2583647723   -0.0174978415    0.0002101455          0.5229
C223       C    0.2374731140   -0.0019908881    0.0369266903            0.53
C224       C    0.1930912538    0.0062657042    0.0380274485         -0.4669
N225       N    0.3022329311   -0.0301792187    0.0005841267          0.5152
F226       F    0.2526140899   -0.0390122034   -0.0739046469          0.5127
H227       H    0.1727632621   -0.0200993244   -0.0677515774          0.5216
C228       C    0.1737639482    0.0226164557    0.0813700029         -0.4597
N229       N    0.2640896126    0.0050962997    0.0753871593         -0.4661
H230       H    0.1389015125    0.0313141704    0.0806468632         -0.4549
H231       H    0.1776111884   -0.0030835317    0.1068002579          0.5117
H232       H    0.1907153819    0.0526551408    0.0925465978         -0.4303
H233       H    0.2515703238    0.0076221229    0.1061691982          0.5302
H234       H    0.2966073873   -0.0033607907    0.0740742498          0.5294
N235       N    0.3305912086   -0.0000000000    0.0000000000         -0.4522
C202       C    0.0000000000    0.0000000000   -0.1694087914          0.5303
C203       C    0.0394637554   -0.0033497891   -0.1903506485           0.524
C204       C    0.0431640263    0.0047433206   -0.2337033205          0.5199
C205       C    0.0076499960    0.0157383665   -0.2583647723          0.5229
C206       C   -0.0321231327    0.0183207107   -0.2374731140            0.53
C207       C   -0.0368056931    0.0114318347   -0.1930912538         -0.4669
N208       N    0.0129960534    0.0272438808   -0.3022329311          0.5152
F209       F    0.0835505708    0.0017750945   -0.2526140899          0.5127
H210       H    0.0695775934   -0.0123781086   -0.1727632621          0.5216
C211       C   -0.0828808814    0.0162277830   -0.1737639482         -0.4597
N212       N   -0.0696839454    0.0292120491   -0.2640896126         -0.4661
H213       H   -0.0861303495    0.0081275281   -0.1389015125         -0.4549
H214       H   -0.0941053212    0.0505963613   -0.1776111884          0.5117
H215       H   -0.1063288530   -0.0056224231   -0.1907153819         -0.4303
H216       H   -0.0983365397    0.0407421202   -0.2515703238          0.5302
H217       H   -0.0647218976    0.0361851539   -0.2966073873          0.5294
N218       N    0.0000000000    0.0000000000   -0.3305912086         -0.4522
C185       C   -0.0000000000    0.0000000000    0.1694087914          0.5303
C186       C    0.0022253492    0.0395431017    0.1903506485           0.524
C187       C    0.0107578933    0.0420701793    0.2337033205          0.5199
C188       C    0.0166567044    0.0053640299    0.2583647723          0.5229
C189       C    0.0136280697   -0.0343776062    0.2374731140            0.53
C190       C    0.0061498818   -0.0380463512    0.1930912538         -0.4669
N191       N    0.0287989575    0.0090413768    0.3022329311          0.5152
F192       F    0.0134906128    0.0824733425    0.2526140899          0.5127
H193       H   -0.0024845806    0.0706263827    0.1727632621          0.5216
C194       C    0.0044279094   -0.0843384554    0.1737639482         -0.4597
N195       N    0.0191367689   -0.0730956916    0.2640896126         -0.4661
H196       H   -0.0040484023   -0.0864181940    0.1389015125         -0.4549
H197       H    0.0368796483   -0.1002780874    0.1776111884          0.5117
H198       H   -0.0204985979   -0.1044856168    0.1907153819         -0.4303
H199       H    0.0265288633   -0.1030835332    0.2515703238          0.5302
H200       H    0.0267375998   -0.0691620572    0.2966073873          0.5294
N201       N   -0.0000000000    0.0000000000    0.3305912086         -0.4522
loop_
_geom_bond_atom_site_label_1
_geom_bond_atom_site_label_2
_geom_bond_distance
_geom_bond_site_symmetry_2
_ccdc_geom_bond_type
Zn1          O5 1.942       .   S
Zn1          O6 1.922       .   S
Zn1         O10 1.922       .   S
Zn1         O17 1.922       .   S
Zn2          O5 1.942       .   S
Zn2          O7 1.922       .   S
Zn2          O9 1.922       .   S
Zn2         O13 1.922       .   S
Zn3          O5 1.942       .   S
Zn3          O8 1.922       .   S
Zn3         O11 1.922       .   S
Zn3         O14 1.922       .   S
Zn4          O5 1.942       .   S
Zn4         O12 1.922       .   S
Zn4         O15 1.922       .   S
Zn4         O16 1.922       .   S
O6          C18 1.304       .   A
O7          C19 1.304       .   A
O8          C20 1.304       .   A
O9          C18 1.304       .   A
O10         C20 1.304       .   A
O11         C19 1.304       .   A
O12         C21 1.304       .   A
O13         C22 1.304       .   A
O14         C21 1.304       .   A
O15         C22 1.304       .   A
O16         C23 1.304       .   A
O17         C23 1.304       .   A
C18        C185 1.540       .   S
C19        C219 1.540       .   S
C20        N286 1.540       .   S
C21        C202 1.540       .   S
C22        N269 1.540       .   S
C23        C236 1.540       .   S
Zn24        O28 1.942       .   S
Zn24        O29 1.922       .   S
Zn24        O33 1.922       .   S
Zn24        O40 1.922       .   S
Zn25        O28 1.942       .   S
Zn25        O30 1.922       .   S
Zn25        O32 1.922       .   S
Zn25        O36 1.922       .   S
Zn26        O28 1.942       .   S
Zn26        O31 1.922       .   S
Zn26        O34 1.922       .   S
Zn26        O37 1.922       .   S
Zn27        O28 1.942       .   S
Zn27        O35 1.922       .   S
Zn27        O38 1.922       .   S
Zn27        O39 1.922       .   S
O29         C41 1.304       .   A
O30         C42 1.304       .   A
O31         C43 1.304       .   A
O32         C41 1.304       .   A
O33         C43 1.304       .   A
O34         C42 1.304       .   A
O35         C44 1.304       .   A
O36         C45 1.304       .   A
O37         C44 1.304       .   A
O38         C45 1.304       .   A
O39         C46 1.304       .   A
O40         C46 1.304       .   A
C41        N201 1.540   1_655   S
C42        C287 1.540       .   S
C43        N337 1.540       .   S
C44        N218 1.540   1_656   S
C45        N354 1.540       .   S
C46        C304 1.540       .   S
Zn47        O51 1.942       .   S
Zn47        O52 1.922       .   S
Zn47        O56 1.922       .   S
Zn47        O63 1.922       .   S
Zn48        O51 1.942       .   S
Zn48        O53 1.922       .   S
Zn48        O55 1.922       .   S
Zn48        O59 1.922       .   S
Zn49        O51 1.942       .   S
Zn49        O54 1.922       .   S
Zn49        O57 1.922       .   S
Zn49        O60 1.922       .   S
Zn50        O51 1.942       .   S
Zn50        O58 1.922       .   S
Zn50        O61 1.922       .   S
Zn50        O62 1.922       .   S
O52         C64 1.304       .   A
O53         C65 1.304       .   A
O54         C66 1.304       .   A
O55         C64 1.304       .   A
O56         C66 1.304       .   A
O57         C65 1.304       .   A
O58         C67 1.304       .   A
O59         C68 1.304       .   A
O60         C67 1.304       .   A
O61         C68 1.304       .   A
O62         C69 1.304       .   A
O63         C69 1.304       .   A
C64        N422 1.540       .   S
C65        C270 1.540   1_665   S
C66        C355 1.540       .   S
C67        N405 1.540       .   S
C68        C372 1.540       .   S
C69        C253 1.540   1_655   S
Zn70        O74 1.942       .   S
Zn70        O75 1.922       .   S
Zn70        O79 1.922       .   S
Zn70        O86 1.922       .   S
Zn71        O74 1.942       .   S
Zn71        O76 1.922       .   S
Zn71        O78 1.922       .   S
Zn71        O82 1.922       .   S
Zn72        O74 1.942       .   S
Zn72        O77 1.922       .   S
Zn72        O80 1.922       .   S
Zn72        O83 1.922       .   S
Zn73        O74 1.942       .   S
Zn73        O81 1.922       .   S
Zn73        O84 1.922       .   S
Zn73        O85 1.922       .   S
O75         C87 1.304       .   A
O76         C88 1.304       .   A
O77         C89 1.304       .   A
O78         C87 1.304       .   A
O79         C89 1.304       .   A
O80         C88 1.304       .   A
O81         C90 1.304       .   A
O82         C91 1.304       .   A
O83         C90 1.304       .   A
O84         C91 1.304       .   A
O85         C92 1.304       .   A
O86         C92 1.304       .   A
C87        C321 1.540       .   S
C88        N371 1.540       .   S
C89        N456 1.540       .   S
C90        C338 1.540   1_565   S
C91        C423 1.540       .   S
C92        N388 1.540   1_556   S
Zn93        O97 1.942       .   S
Zn93        O98 1.922       .   S
Zn93       O102 1.922       .   S
Zn93       O109 1.922       .   S
Zn94        O97 1.942       .   S
Zn94        O99 1.922       .   S
Zn94       O101 1.922       .   S
Zn94       O105 1.922       .   S
Zn95        O97 1.942       .   S
Zn95       O100 1.922       .   S
Zn95       O103 1.922       .   S
Zn95       O106 1.922       .   S
Zn96        O97 1.942       .   S
Zn96       O104 1.922       .   S
Zn96       O107 1.922       .   S
Zn96       O108 1.922       .   S
O98        C110 1.304       .   A
O99        C111 1.304       .   A
O100       C112 1.304       .   A
O101       C110 1.304       .   A
O102       C112 1.304       .   A
O103       C111 1.304       .   A
O104       C113 1.304       .   A
O105       C114 1.304       .   A
O106       C113 1.304       .   A
O107       C114 1.304       .   A
O108       C115 1.304       .   A
O109       C115 1.304       .   A
C110       N235 1.540   1_565   S
C111       C457 1.540       .   S
C112       N524 1.540       .   S
C113       N252 1.540   1_665   S
C114       N507 1.540       .   S
C115       N490 1.540       .   S
Zn116      O120 1.942       .   S
Zn116      O121 1.922       .   S
Zn116      O125 1.922       .   S
Zn116      O132 1.922       .   S
Zn117      O120 1.942       .   S
Zn117      O122 1.922       .   S
Zn117      O124 1.922       .   S
Zn117      O128 1.922       .   S
Zn118      O120 1.942       .   S
Zn118      O123 1.922       .   S
Zn118      O126 1.922       .   S
Zn118      O129 1.922       .   S
Zn119      O120 1.942       .   S
Zn119      O127 1.922       .   S
Zn119      O130 1.922       .   S
Zn119      O131 1.922       .   S
O121       C133 1.304       .   A
O122       C134 1.304       .   A
O123       C135 1.304       .   A
O124       C133 1.304       .   A
O125       C135 1.304       .   A
O126       C134 1.304       .   A
O127       C136 1.304       .   A
O128       C137 1.304       .   A
O129       C136 1.304       .   A
O130       C137 1.304       .   A
O131       C138 1.304       .   A
O132       C138 1.304       .   A
C133       N303 1.540   1_465   S
C134       N473 1.540       .   S
C135       C525 1.540       .   S
C136       N320 1.540   1_565   S
C137       C542 1.540       .   S
C138       C474 1.540   1_556   S
Zn139      O143 1.942       .   S
Zn139      O144 1.922       .   S
Zn139      O148 1.922       .   S
Zn139      O155 1.922       .   S
Zn140      O143 1.942       .   S
Zn140      O145 1.922       .   S
Zn140      O147 1.922       .   S
Zn140      O151 1.922       .   S
Zn141      O143 1.942       .   S
Zn141      O146 1.922       .   S
Zn141      O149 1.922       .   S
Zn141      O152 1.922       .   S
Zn142      O143 1.942       .   S
Zn142      O150 1.922       .   S
Zn142      O153 1.922       .   S
Zn142      O154 1.922       .   S
O144       C156 1.304       .   A
O145       C157 1.304       .   A
O146       C158 1.304       .   A
O147       C156 1.304       .   A
O148       C158 1.304       .   A
O149       C157 1.304       .   A
O150       C159 1.304       .   A
O151       C160 1.304       .   A
O152       C159 1.304       .   A
O153       C160 1.304       .   A
O154       C161 1.304       .   A
O155       C161 1.304       .   A
C156       C389 1.540   1_455   S
C157       C491 1.540   1_545   S
C158       N592 1.540       .   S
C159       C406 1.540       .   S
C160       N575 1.540       .   S
C161       C508 1.540       .   S
Zn162      O166 1.942       .   S
Zn162      O167 1.922       .   S
Zn162      O171 1.922       .   S
Zn162      O178 1.922       .   S
Zn163      O166 1.942       .   S
Zn163      O168 1.922       .   S
Zn163      O170 1.922       .   S
Zn163      O174 1.922       .   S
Zn164      O166 1.942       .   S
Zn164      O169 1.922       .   S
Zn164      O172 1.922       .   S
Zn164      O175 1.922       .   S
Zn165      O166 1.942       .   S
Zn165      O173 1.922       .   S
Zn165      O176 1.922       .   S
Zn165      O177 1.922       .   S
O167       C179 1.304       .   A
O168       C180 1.304       .   A
O169       C181 1.304       .   A
O170       C179 1.304       .   A
O171       C181 1.304       .   A
O172       C180 1.304       .   A
O173       C182 1.304       .   A
O174       C183 1.304       .   A
O175       C182 1.304       .   A
O176       C183 1.304       .   A
O177       C184 1.304       .   A
O178       C184 1.304       .   A
C179       N439 1.540   1_455   S
C180       N541 1.540   1_545   S
C181       C559 1.540       .   S
C182       C440 1.540       .   S
C183       C576 1.540   1_556   S
C184       N558 1.540       .   S
C576       C577 0.044       .   A
C576       C581 0.045       .   A
C577       C578 0.044       .   A
C577       H584 0.036       .   A
C578       C579 0.044       .   A
C578       F583 0.044       .   A
C579       C580 0.045       .   A
C579       N582 0.045       .   A
C580       C581 0.045       .   A
C580       N586 0.047       .   A
C581       C585 0.050       .   A
N582       N592 0.041       .   A
C585       H587 0.036       .   A
C585       H588 0.036       .   A
C585       H589 0.036       .   A
N586       H590 0.033       .   A
N586       H591 0.033       .   A
C559       C560 0.044       .   A
C559       C564 0.045       .   A
C560       C561 0.044       .   A
C560       H567 0.036       .   A
C561       C562 0.044       .   A
C561       F566 0.044       .   A
C562       C563 0.045       .   A
C562       N565 0.045       .   A
C563       C564 0.045       .   A
C563       N569 0.047       .   A
C564       C568 0.050       .   A
N565       N575 0.041       .   A
C568       H570 0.036       .   A
C568       H571 0.036       .   A
C568       H572 0.036       .   A
N569       H573 0.033       .   A
N569       H574 0.033       .   A
C542       C543 0.044       .   A
C542       C547 0.045       .   A
C543       C544 0.044       .   A
C543       H550 0.036       .   A
C544       C545 0.044       .   A
C544       F549 0.044       .   A
C545       C546 0.045       .   A
C545       N548 0.045       .   A
C546       C547 0.045       .   A
C546       N552 0.047       .   A
C547       C551 0.050       .   A
N548       N558 0.041       .   A
C551       H553 0.036       .   A
C551       H554 0.036       .   A
C551       H555 0.036       .   A
N552       H556 0.033       .   A
N552       H557 0.033       .   A
C525       C526 0.044       .   A
C525       C530 0.045       .   A
C526       C527 0.044       .   A
C526       H533 0.036       .   A
C527       C528 0.044       .   A
C527       F532 0.044       .   A
C528       C529 0.045       .   A
C528       N531 0.045       .   A
C529       C530 0.045       .   A
C529       N535 0.047       .   A
C530       C534 0.050       .   A
N531       N541 0.041       .   A
C534       H536 0.036       .   A
C534       H537 0.036       .   A
C534       H538 0.036       .   A
N535       H539 0.033       .   A
N535       H540 0.033       .   A
C508       C509 0.044       .   A
C508       C513 0.045       .   A
C509       C510 0.044       .   A
C509       H516 0.036       .   A
C510       C511 0.044       .   A
C510       F515 0.044       .   A
C511       C512 0.045       .   A
C511       N514 0.045       .   A
C512       C513 0.045       .   A
C512       N518 0.047       .   A
C513       C517 0.050       .   A
N514       N524 0.041       .   A
C517       H519 0.036       .   A
C517       H520 0.036       .   A
C517       H521 0.036       .   A
N518       H522 0.033       .   A
N518       H523 0.033       .   A
C491       C492 0.044       .   A
C491       C496 0.045       .   A
C492       C493 0.044       .   A
C492       H499 0.036       .   A
C493       C494 0.044       .   A
C493       F498 0.044       .   A
C494       C495 0.045       .   A
C494       N497 0.045       .   A
C495       C496 0.045       .   A
C495       N501 0.047       .   A
C496       C500 0.050       .   A
N497       N507 0.041       .   A
C500       H502 0.036       .   A
C500       H503 0.036       .   A
C500       H504 0.036       .   A
N501       H505 0.033       .   A
N501       H506 0.033       .   A
C474       C475 0.044       .   A
C474       C479 0.045       .   A
C475       C476 0.044       .   A
C475       H482 0.036       .   A
C476       C477 0.044       .   A
C476       F481 0.044       .   A
C477       C478 0.045       .   A
C477       N480 0.045       .   A
C478       C479 0.045       .   A
C478       N484 0.047       .   A
C479       C483 0.050       .   A
N480       N490 0.041       .   A
C483       H485 0.036       .   A
C483       H486 0.036       .   A
C483       H487 0.036       .   A
N484       H488 0.033       .   A
N484       H489 0.033       .   A
C457       C458 0.044       .   A
C457       C462 0.045       .   A
C458       C459 0.044       .   A
C458       H465 0.036       .   A
C459       C460 0.044       .   A
C459       F464 0.044       .   A
C460       C461 0.045       .   A
C460       N463 0.045       .   A
C461       C462 0.045       .   A
C461       N467 0.047       .   A
C462       C466 0.050       .   A
N463       N473 0.041       .   A
C466       H468 0.036       .   A
C466       H469 0.036       .   A
C466       H470 0.036       .   A
N467       H471 0.033       .   A
N467       H472 0.033       .   A
C440       C441 0.044       .   A
C440       C445 0.045       .   A
C441       C442 0.044       .   A
C441       H448 0.036       .   A
C442       C443 0.044       .   A
C442       F447 0.044       .   A
C443       C444 0.045       .   A
C443       N446 0.045       .   A
C444       C445 0.045       .   A
C444       N450 0.047       .   A
C445       C449 0.050       .   A
N446       N456 0.041       .   A
C449       H451 0.036       .   A
C449       H452 0.036       .   A
C449       H453 0.036       .   A
N450       H454 0.033       .   A
N450       H455 0.033       .   A
C423       C424 0.044       .   A
C423       C428 0.045       .   A
C424       C425 0.044       .   A
C424       H431 0.036       .   A
C425       C426 0.044       .   A
C425       F430 0.044       .   A
C426       C427 0.045       .   A
C426       N429 0.045       .   A
C427       C428 0.045       .   A
C427       N433 0.047       .   A
C428       C432 0.050       .   A
N429       N439 0.041       .   A
C432       H434 0.036       .   A
C432       H435 0.036       .   A
C432       H436 0.036       .   A
N433       H437 0.033       .   A
N433       H438 0.033       .   A
C406       C407 0.044       .   A
C406       C411 0.045       .   A
C407       C408 0.044       .   A
C407       H414 0.036       .   A
C408       C409 0.044       .   A
C408       F413 0.044       .   A
C409       C410 0.045       .   A
C409       N412 0.045       .   A
C410       C411 0.045       .   A
C410       N416 0.047       .   A
C411       C415 0.050       .   A
N412       N422 0.041       .   A
C415       H417 0.036       .   A
C415       H418 0.036       .   A
C415       H419 0.036       .   A
N416       H420 0.033       .   A
N416       H421 0.033       .   A
C389       C390 0.044       .   A
C389       C394 0.045       .   A
C390       C391 0.044       .   A
C390       H397 0.036       .   A
C391       C392 0.044       .   A
C391       F396 0.044       .   A
C392       C393 0.045       .   A
C392       N395 0.045       .   A
C393       C394 0.045       .   A
C393       N399 0.047       .   A
C394       C398 0.050       .   A
N395       N405 0.041       .   A
C398       H400 0.036       .   A
C398       H401 0.036       .   A
C398       H402 0.036       .   A
N399       H403 0.033       .   A
N399       H404 0.033       .   A
C372       C373 0.044       .   A
C372       C377 0.045       .   A
C373       C374 0.044       .   A
C373       H380 0.036       .   A
C374       C375 0.044       .   A
C374       F379 0.044       .   A
C375       C376 0.045       .   A
C375       N378 0.045       .   A
C376       C377 0.045       .   A
C376       N382 0.047       .   A
C377       C381 0.050       .   A
N378       N388 0.041       .   A
C381       H383 0.036       .   A
C381       H384 0.036       .   A
C381       H385 0.036       .   A
N382       H386 0.033       .   A
N382       H387 0.033       .   A
C355       C356 0.044       .   A
C355       C360 0.045       .   A
C356       C357 0.044       .   A
C356       H363 0.036       .   A
C357       C358 0.044       .   A
C357       F362 0.044       .   A
C358       C359 0.045       .   A
C358       N361 0.045       .   A
C359       C360 0.045       .   A
C359       N365 0.047       .   A
C360       C364 0.050       .   A
N361       N371 0.041       .   A
C364       H366 0.036       .   A
C364       H367 0.036       .   A
C364       H368 0.036       .   A
N365       H369 0.033       .   A
N365       H370 0.033       .   A
C338       C339 0.044       .   A
C338       C343 0.045       .   A
C339       C340 0.044       .   A
C339       H346 0.036       .   A
C340       C341 0.044       .   A
C340       F345 0.044       .   A
C341       C342 0.045       .   A
C341       N344 0.045       .   A
C342       C343 0.045       .   A
C342       N348 0.047       .   A
C343       C347 0.050       .   A
N344       N354 0.041       .   A
C347       H349 0.036       .   A
C347       H350 0.036       .   A
C347       H351 0.036       .   A
N348       H352 0.033       .   A
N348       H353 0.033       .   A
C321       C322 0.044       .   A
C321       C326 0.045       .   A
C322       C323 0.044       .   A
C322       H329 0.036       .   A
C323       C324 0.044       .   A
C323       F328 0.044       .   A
C324       C325 0.045       .   A
C324       N327 0.045       .   A
C325       C326 0.045       .   A
C325       N331 0.047       .   A
C326       C330 0.050       .   A
N327       N337 0.041       .   A
C330       H332 0.036       .   A
C330       H333 0.036       .   A
C330       H334 0.036       .   A
N331       H335 0.033       .   A
N331       H336 0.033       .   A
C304       C305 0.044       .   A
C304       C309 0.045       .   A
C305       C306 0.044       .   A
C305       H312 0.036       .   A
C306       C307 0.044       .   A
C306       F311 0.044       .   A
C307       C308 0.045       .   A
C307       N310 0.045       .   A
C308       C309 0.045       .   A
C308       N314 0.047       .   A
C309       C313 0.050       .   A
N310       N320 0.041       .   A
C313       H315 0.036       .   A
C313       H316 0.036       .   A
C313       H317 0.036       .   A
N314       H318 0.033       .   A
N314       H319 0.033       .   A
C287       C288 0.044       .   A
C287       C292 0.045       .   A
C288       C289 0.044       .   A
C288       H295 0.036       .   A
C289       C290 0.044       .   A
C289       F294 0.044       .   A
C290       C291 0.045       .   A
C290       N293 0.045       .   A
C291       C292 0.045       .   A
C291       N297 0.047       .   A
C292       C296 0.050       .   A
N293       N303 0.041       .   A
C296       H298 0.036       .   A
C296       H299 0.036       .   A
C296       H300 0.036       .   A
N297       H301 0.033       .   A
N297       H302 0.033       .   A
C270       C271 0.044       .   A
C270       C275 0.045       .   A
C271       C272 0.044       .   A
C271       H278 0.036       .   A
C272       C273 0.044       .   A
C272       F277 0.044       .   A
C273       C274 0.045       .   A
C273       N276 0.045       .   A
C274       C275 0.045       .   A
C274       N280 0.047       .   A
C275       C279 0.050       .   A
N276       N286 0.041       .   A
C279       H281 0.036       .   A
C279       H282 0.036       .   A
C279       H283 0.036       .   A
N280       H284 0.033       .   A
N280       H285 0.033       .   A
C253       C254 0.044       .   A
C253       C258 0.045       .   A
C254       C255 0.044       .   A
C254       H261 0.036       .   A
C255       C256 0.044       .   A
C255       F260 0.044       .   A
C256       C257 0.045       .   A
C256       N259 0.045       .   A
C257       C258 0.045       .   A
C257       N263 0.047       .   A
C258       C262 0.050       .   A
N259       N269 0.041       .   A
C262       H264 0.036       .   A
C262       H265 0.036       .   A
C262       H266 0.036       .   A
N263       H267 0.033       .   A
N263       H268 0.033       .   A
C236       C237 0.044       .   A
C236       C241 0.045       .   A
C237       C238 0.044       .   A
C237       H244 0.036       .   A
C238       C239 0.044       .   A
C238       F243 0.044       .   A
C239       C240 0.045       .   A
C239       N242 0.045       .   A
C240       C241 0.045       .   A
C240       N246 0.047       .   A
C241       C245 0.050       .   A
N242       N252 0.041       .   A
C245       H247 0.036       .   A
C245       H248 0.036       .   A
C245       H249 0.036       .   A
N246       H250 0.033       .   A
N246       H251 0.033       .   A
C219       C220 0.044       .   A
C219       C224 0.045       .   A
C220       C221 0.044       .   A
C220       H227 0.036       .   A
C221       C222 0.044       .   A
C221       F226 0.044       .   A
C222       C223 0.045       .   A
C222       N225 0.045       .   A
C223       C224 0.045       .   A
C223       N229 0.047       .   A
C224       C228 0.050       .   A
N225       N235 0.041       .   A
C228       H230 0.036       .   A
C228       H231 0.036       .   A
C228       H232 0.036       .   A
N229       H233 0.033       .   A
N229       H234 0.033       .   A
C202       C203 0.044       .   A
C202       C207 0.045       .   A
C203       C204 0.044       .   A
C203       H210 0.036       .   A
C204       C205 0.044       .   A
C204       F209 0.044       .   A
C205       C206 0.045       .   A
C205       N208 0.045       .   A
C206       C207 0.045       .   A
C206       N212 0.047       .   A
C207       C211 0.050       .   A
N208       N218 0.041       .   A
C211       H213 0.036       .   A
C211       H214 0.036       .   A
C211       H215 0.036       .   A
N212       H216 0.033       .   A
N212       H217 0.033       .   A
C185       C186 0.044       .   A
C185       C190 0.045       .   A
C186       C187 0.044       .   A
C186       H193 0.036       .   A
C187       C188 0.044       .   A
C187       F192 0.044       .   A
C188       C189 0.045       .   A
C188       N191 0.045       .   A
C189       C190 0.045       .   A
C189       N195 0.047       .   A
C190       C194 0.050       .   A
N191       N201 0.041       .   A
C194       H196 0.036       .   A
C194       H197 0.036       .   A
C194       H198 0.036       .   A
N195       H199 0.033       .   A
N195       H200 0.033       .   A
