data_pcu_v1-6c_Zn_1_Ch_1-32_fer_tobacco
_audit_creation_date              2021-04-07
_audit_creation_method            'tobacco_3.0'
_symmetry_space_group_name_H-M    'P1'
_symmetry_Int_Tables_number       1
_symmetry_cell_setting            triclinic
loop_
_symmetry_equiv_pos_as_xyz
  x,y,z
_cell_length_a                    31.23878745243743
_cell_length_b                    31.23878745243743
_cell_length_c                    31.23878745243743
_cell_angle_alpha                 90.0
_cell_angle_beta                  90.0
_cell_angle_gamma                 90.0
loop_
_atom_site_label
_atom_site_type_symbol
_atom_site_fract_x
_atom_site_fract_y
_atom_site_fract_z
_atom_site_charge
Zn1       Zn   -0.0358912778   -0.0358912778    0.0358912778          1.4972
Zn2       Zn    0.0358912778    0.0358912778    0.0358912778          1.4936
Zn3       Zn    0.0358912778   -0.0358912778   -0.0358912778          1.4911
Zn4       Zn   -0.0358912778    0.0358912778   -0.0358912778          1.4948
O5         O    0.0000000000    0.0000000000    0.0000000000         -2.0645
O6         O   -0.0263774643   -0.0263774643    0.0959256183         -0.9708
O7         O    0.0959256183    0.0263774643    0.0263774643          -0.969
O8         O    0.0263774643   -0.0959256183   -0.0263774643         -0.9641
O9         O    0.0263774643    0.0263774643    0.0959256183         -0.9709
O10        O   -0.0263774643   -0.0959256183    0.0263774643         -0.9669
O11        O    0.0959256183   -0.0263774643   -0.0263774643         -0.9728
O12        O   -0.0263774643    0.0263774643   -0.0959256183         -0.9667
O13        O    0.0263774643    0.0959256183    0.0263774643         -0.9742
O14        O    0.0263774643   -0.0263774643   -0.0959256183         -0.9681
O15        O   -0.0263774643    0.0959256183   -0.0263774643         -0.9728
O16        O   -0.0959256183    0.0263774643   -0.0263774643         -0.9719
O17        O   -0.0959256183   -0.0263774643    0.0263774643         -0.9698
C18        C   -0.0000000000   -0.0000000000    0.1146907512          0.5481
C19        C    0.1146907512   -0.0000000000   -0.0000000000           0.553
C20        C   -0.0000000000   -0.1146907512    0.0000000000          0.5426
C21        C    0.0000000000    0.0000000000   -0.1146907512          0.5464
C22        C    0.0000000000    0.1146907512   -0.0000000000          0.5577
C23        C   -0.1146907512    0.0000000000    0.0000000000          0.5482
Zn24      Zn    0.9641087222    0.0358912778    0.4641087222          1.4972
Zn25      Zn    1.0358912778   -0.0358912778    0.4641087222          1.4936
Zn26      Zn    1.0358912778    0.0358912778    0.5358912778          1.4911
Zn27      Zn    0.9641087222   -0.0358912778    0.5358912778          1.4948
O28        O    1.0000000000    0.0000000000    0.5000000000         -2.0645
O29        O    0.9736225357    0.0263774643    0.4040743817         -0.9708
O30        O    1.0959256183   -0.0263774643    0.4736225357          -0.969
O31        O    1.0263774643    0.0959256183    0.5263774643         -0.9641
O32        O    1.0263774643   -0.0263774643    0.4040743817         -0.9709
O33        O    0.9736225357    0.0959256183    0.4736225357         -0.9669
O34        O    1.0959256183    0.0263774643    0.5263774643         -0.9728
O35        O    0.9736225357   -0.0263774643    0.5959256183         -0.9667
O36        O    1.0263774643   -0.0959256183    0.4736225357         -0.9742
O37        O    1.0263774643    0.0263774643    0.5959256183         -0.9681
O38        O    0.9736225357   -0.0959256183    0.5263774643         -0.9728
O39        O    0.9040743817   -0.0263774643    0.5263774643         -0.9719
O40        O    0.9040743817    0.0263774643    0.4736225357         -0.9698
C41        C    1.0000000000    0.0000000000    0.3853092488          0.5481
C42        C    1.1146907512    0.0000000000    0.5000000000           0.553
C43        C    1.0000000000    0.1146907512    0.5000000000          0.5426
C44        C    1.0000000000    0.0000000000    0.6146907512          0.5464
C45        C    1.0000000000   -0.1146907512    0.5000000000          0.5577
C46        C    0.8853092488    0.0000000000    0.5000000000          0.5482
Zn47      Zn    0.9641087222    0.4641087222    0.0358912778          1.4972
Zn48      Zn    1.0358912778    0.4641087222   -0.0358912778          1.4936
Zn49      Zn    0.9641087222    0.5358912778   -0.0358912778          1.4911
Zn50      Zn    1.0358912778    0.5358912778    0.0358912778          1.4948
O51        O    1.0000000000    0.5000000000    0.0000000000         -2.0645
O52        O    0.9736225357    0.4040743817    0.0263774643         -0.9708
O53        O    1.0263774643    0.4736225357   -0.0959256183          -0.969
O54        O    0.9040743817    0.5263774643   -0.0263774643         -0.9641
O55        O    1.0263774643    0.4040743817   -0.0263774643         -0.9709
O56        O    0.9040743817    0.4736225357    0.0263774643         -0.9669
O57        O    0.9736225357    0.5263774643   -0.0959256183         -0.9728
O58        O    1.0263774643    0.5959256183    0.0263774643         -0.9667
O59        O    1.0959256183    0.4736225357   -0.0263774643         -0.9742
O60        O    0.9736225357    0.5959256183   -0.0263774643         -0.9681
O61        O    1.0959256183    0.5263774643    0.0263774643         -0.9728
O62        O    1.0263774643    0.5263774643    0.0959256183         -0.9719
O63        O    0.9736225357    0.4736225357    0.0959256183         -0.9698
C64        C    1.0000000000    0.3853092488    0.0000000000          0.5481
C65        C    1.0000000000    0.5000000000   -0.1146907512           0.553
C66        C    0.8853092488    0.5000000000    0.0000000000          0.5426
C67        C    1.0000000000    0.6146907512    0.0000000000          0.5464
C68        C    1.1146907512    0.5000000000    0.0000000000          0.5577
C69        C    1.0000000000    0.5000000000    0.1146907512          0.5482
Zn70      Zn    0.9641087222    0.4641087222    0.5358912778          1.4972
Zn71      Zn    1.0358912778    0.4641087222    0.4641087222          1.4936
Zn72      Zn    0.9641087222    0.5358912778    0.4641087222          1.4911
Zn73      Zn    1.0358912778    0.5358912778    0.5358912778          1.4948
O74        O    1.0000000000    0.5000000000    0.5000000000         -2.0645
O75        O    0.9736225357    0.4040743817    0.5263774643         -0.9708
O76        O    1.0263774643    0.4736225357    0.4040743817          -0.969
O77        O    0.9040743817    0.5263774643    0.4736225357         -0.9641
O78        O    1.0263774643    0.4040743817    0.4736225357         -0.9709
O79        O    0.9040743817    0.4736225357    0.5263774643         -0.9669
O80        O    0.9736225357    0.5263774643    0.4040743817         -0.9728
O81        O    1.0263774643    0.5959256183    0.5263774643         -0.9667
O82        O    1.0959256183    0.4736225357    0.4736225357         -0.9742
O83        O    0.9736225357    0.5959256183    0.4736225357         -0.9681
O84        O    1.0959256183    0.5263774643    0.5263774643         -0.9728
O85        O    1.0263774643    0.5263774643    0.5959256183         -0.9719
O86        O    0.9736225357    0.4736225357    0.5959256183         -0.9698
C87        C    1.0000000000    0.3853092488    0.5000000000          0.5481
C88        C    1.0000000000    0.5000000000    0.3853092488           0.553
C89        C    0.8853092488    0.5000000000    0.5000000000          0.5426
C90        C    1.0000000000    0.6146907512    0.5000000000          0.5464
C91        C    1.1146907512    0.5000000000    0.5000000000          0.5577
C92        C    1.0000000000    0.5000000000    0.6146907512          0.5482
Zn93      Zn    0.4641087222    0.9641087222   -0.0358912778          1.4972
Zn94      Zn    0.4641087222    1.0358912778    0.0358912778          1.4936
Zn95      Zn    0.5358912778    0.9641087222    0.0358912778          1.4911
Zn96      Zn    0.5358912778    1.0358912778   -0.0358912778          1.4948
O97        O    0.5000000000    1.0000000000    0.0000000000         -2.0645
O98        O    0.4040743817    0.9736225357   -0.0263774643         -0.9708
O99        O    0.4736225357    1.0263774643    0.0959256183          -0.969
O100       O    0.5263774643    0.9040743817    0.0263774643         -0.9641
O101       O    0.4040743817    1.0263774643    0.0263774643         -0.9709
O102       O    0.4736225357    0.9040743817   -0.0263774643         -0.9669
O103       O    0.5263774643    0.9736225357    0.0959256183         -0.9728
O104       O    0.5959256183    1.0263774643   -0.0263774643         -0.9667
O105       O    0.4736225357    1.0959256183    0.0263774643         -0.9742
O106       O    0.5959256183    0.9736225357    0.0263774643         -0.9681
O107       O    0.5263774643    1.0959256183   -0.0263774643         -0.9728
O108       O    0.5263774643    1.0263774643   -0.0959256183         -0.9719
O109       O    0.4736225357    0.9736225357   -0.0959256183         -0.9698
C110       C    0.3853092488    1.0000000000    0.0000000000          0.5481
C111       C    0.5000000000    1.0000000000    0.1146907512           0.553
C112       C    0.5000000000    0.8853092488    0.0000000000          0.5426
C113       C    0.6146907512    1.0000000000    0.0000000000          0.5464
C114       C    0.5000000000    1.1146907512    0.0000000000          0.5577
C115       C    0.5000000000    1.0000000000   -0.1146907512          0.5482
Zn116     Zn    0.4641087222    1.0358912778    0.4641087222          1.4972
Zn117     Zn    0.4641087222    0.9641087222    0.5358912778          1.4936
Zn118     Zn    0.5358912778    0.9641087222    0.4641087222          1.4911
Zn119     Zn    0.5358912778    1.0358912778    0.5358912778          1.4948
O120       O    0.5000000000    1.0000000000    0.5000000000         -2.0645
O121       O    0.4040743817    1.0263774643    0.4736225357         -0.9708
O122       O    0.4736225357    0.9040743817    0.5263774643          -0.969
O123       O    0.5263774643    0.9736225357    0.4040743817         -0.9641
O124       O    0.4040743817    0.9736225357    0.5263774643         -0.9709
O125       O    0.4736225357    1.0263774643    0.4040743817         -0.9669
O126       O    0.5263774643    0.9040743817    0.4736225357         -0.9728
O127       O    0.5959256183    1.0263774643    0.5263774643         -0.9667
O128       O    0.4736225357    0.9736225357    0.5959256183         -0.9742
O129       O    0.5959256183    0.9736225357    0.4736225357         -0.9681
O130       O    0.5263774643    1.0263774643    0.5959256183         -0.9728
O131       O    0.5263774643    1.0959256183    0.5263774643         -0.9719
O132       O    0.4736225357    1.0959256183    0.4736225357         -0.9698
C133       C    0.3853092488    1.0000000000    0.5000000000          0.5481
C134       C    0.5000000000    0.8853092488    0.5000000000           0.553
C135       C    0.5000000000    1.0000000000    0.3853092488          0.5426
C136       C    0.6146907512    1.0000000000    0.5000000000          0.5464
C137       C    0.5000000000    1.0000000000    0.6146907512          0.5577
C138       C    0.5000000000    1.1146907512    0.5000000000          0.5482
Zn139     Zn    0.4641087222    0.5358912778   -0.0358912778          1.4972
Zn140     Zn    0.4641087222    0.4641087222    0.0358912778          1.4936
Zn141     Zn    0.5358912778    0.4641087222   -0.0358912778          1.4911
Zn142     Zn    0.5358912778    0.5358912778    0.0358912778          1.4948
O143       O    0.5000000000    0.5000000000    0.0000000000         -2.0645
O144       O    0.4040743817    0.5263774643   -0.0263774643         -0.9708
O145       O    0.4736225357    0.4040743817    0.0263774643          -0.969
O146       O    0.5263774643    0.4736225357   -0.0959256183         -0.9641
O147       O    0.4040743817    0.4736225357    0.0263774643         -0.9709
O148       O    0.4736225357    0.5263774643   -0.0959256183         -0.9669
O149       O    0.5263774643    0.4040743817   -0.0263774643         -0.9728
O150       O    0.5959256183    0.5263774643    0.0263774643         -0.9667
O151       O    0.4736225357    0.4736225357    0.0959256183         -0.9742
O152       O    0.5959256183    0.4736225357   -0.0263774643         -0.9681
O153       O    0.5263774643    0.5263774643    0.0959256183         -0.9728
O154       O    0.5263774643    0.5959256183    0.0263774643         -0.9719
O155       O    0.4736225357    0.5959256183   -0.0263774643         -0.9698
C156       C    0.3853092488    0.5000000000    0.0000000000          0.5481
C157       C    0.5000000000    0.3853092488    0.0000000000           0.553
C158       C    0.5000000000    0.5000000000   -0.1146907512          0.5426
C159       C    0.6146907512    0.5000000000    0.0000000000          0.5464
C160       C    0.5000000000    0.5000000000    0.1146907512          0.5577
C161       C    0.5000000000    0.6146907512    0.0000000000          0.5482
Zn162     Zn    0.4641087222    0.4641087222    0.4641087222          1.4972
Zn163     Zn    0.4641087222    0.5358912778    0.5358912778          1.4936
Zn164     Zn    0.5358912778    0.4641087222    0.5358912778          1.4911
Zn165     Zn    0.5358912778    0.5358912778    0.4641087222          1.4948
O166       O    0.5000000000    0.5000000000    0.5000000000         -2.0645
O167       O    0.4040743817    0.4736225357    0.4736225357         -0.9708
O168       O    0.4736225357    0.5263774643    0.5959256183          -0.969
O169       O    0.5263774643    0.4040743817    0.5263774643         -0.9641
O170       O    0.4040743817    0.5263774643    0.5263774643         -0.9709
O171       O    0.4736225357    0.4040743817    0.4736225357         -0.9669
O172       O    0.5263774643    0.4736225357    0.5959256183         -0.9728
O173       O    0.5959256183    0.5263774643    0.4736225357         -0.9667
O174       O    0.4736225357    0.5959256183    0.5263774643         -0.9742
O175       O    0.5959256183    0.4736225357    0.5263774643         -0.9681
O176       O    0.5263774643    0.5959256183    0.4736225357         -0.9728
O177       O    0.5263774643    0.5263774643    0.4040743817         -0.9719
O178       O    0.4736225357    0.4736225357    0.4040743817         -0.9698
C179       C    0.3853092488    0.5000000000    0.5000000000          0.5481
C180       C    0.5000000000    0.5000000000    0.6146907512           0.553
C181       C    0.5000000000    0.3853092488    0.5000000000          0.5426
C182       C    0.6146907512    0.5000000000    0.5000000000          0.5464
C183       C    0.5000000000    0.6146907512    0.5000000000          0.5577
C184       C    0.5000000000    0.5000000000    0.3853092488          0.5482
C645       C    0.5000000000    0.5000000000   -0.3360115607         -0.2089
C646       C    0.4935676841    0.4681156440   -0.3069430865           -0.21
C647       C    0.4918182301    0.4750861994   -0.2643848746         -0.2169
C648       C    0.4988002895    0.5145533513   -0.2459184072         -0.2214
C649       C    0.4992098842    0.5466746582   -0.2767923666         -0.2252
C650       C    0.5009530549    0.5399650068   -0.3197255639         -0.2184
C651       C    0.5114989160    0.5176201163   -0.2027753148         -0.2154
H652       H    0.4856251145    0.4480841001   -0.2432501656         -0.2181
Cl653     Cl    0.4842742090    0.4151325075   -0.3207129503          -0.205
C654       C    0.5056215458    0.5783505642   -0.3496993229         -0.2201
F655       F    0.4993492306    0.5856878568   -0.2586794659          0.7647
C656       C    0.5000000000    0.5000000000   -0.1639884393         -0.2247
H657       H    0.4743462352    0.4763864159   -0.1631229580          0.7588
H658       H    0.5374225441    0.5405269566   -0.1991796645         -0.1989
C659       C    0.4634538190    0.5891240264   -0.3731509948          0.7443
H660       H    0.4702948314    0.6016957459   -0.4050783068          0.7502
H661       H    0.4432199741    0.5607768875   -0.3768479656          0.7338
H662       H    0.4453445574    0.6131885447   -0.3554839882          0.7221
H663       H    0.5165441667    0.6068559497   -0.3326573233         -0.2187
H664       H    0.5306383697    0.5719057206   -0.3732908347         -0.1955
C625       C    0.5000000000    0.5000000000    0.3360115607         -0.2089
C626       C    0.5067323370    0.4681776418    0.3069430865           -0.21
C627       C    0.5084160604    0.4751643654    0.2643848746         -0.2169
C628       C    0.5010625849    0.5145640054    0.2459184072         -0.2214
C629       C    0.5003504703    0.5466800297    0.2767923666         -0.2252
C630       C    0.4986705725    0.5399542576    0.3197255639         -0.2184
C631       C    0.4883356371    0.5175110309    0.2027753148         -0.2154
H632       H    0.5148632235    0.4482217943    0.2432501656         -0.2181
Cl633     Cl    0.5165244274    0.4152843870    0.3207129503          -0.205
C634       C    0.4936407500    0.5782941418    0.3496993229         -0.2201
F635       F    0.4998436800    0.5856901854    0.2586794659          0.7647
C636       C    0.5000000000    0.5000000000    0.1639884393         -0.2247
H637       H    0.5258750341    0.4766290861    0.1631229580          0.7588
H638       H    0.4621974082    0.5401726906    0.1991796645         -0.1989
C639       C    0.5357051354    0.5894642875    0.3731509948          0.7443
H640       H    0.5287460183    0.6019710165    0.4050783068          0.7502
H641       H    0.5562050735    0.5613089806    0.3768479656          0.7338
H642       H    0.5535869394    0.6136983024    0.3554839882          0.7221
H643       H    0.4824501324    0.6066953869    0.3326573233         -0.2187
H644       H    0.4686857373    0.5716139602    0.3732908347         -0.1955
C605       C    0.5000000000    0.8360115607    0.5000000000         -0.2089
C606       C    0.5051539289    0.8069430865    0.5321157883           -0.21
C607       C    0.5071803465    0.7643848746    0.5252206550         -0.2169
C608       C    0.5017799209    0.7459184072    0.4855061661         -0.2214
C609       C    0.5026533714    0.7767923666    0.4533941246         -0.2252
C610       C    0.5006436508    0.8197255639    0.4600288130         -0.2184
C611       C    0.4892138905    0.7027753148    0.4819347458         -0.2154
H612       H    0.5122902318    0.7432501656    0.5524485290         -0.2181
Cl613     Cl    0.5123241850    0.8207129503    0.5854277838          -0.205
C614       C    0.4975117562    0.8496993229    0.4214874447         -0.2201
F615       F    0.5040720726    0.7586794659    0.4144064808          0.7647
C616       C    0.5000000000    0.6639884393    0.5000000000         -0.2247
H617       H    0.5246903270    0.6631229580    0.5246191949          0.7588
H618       H    0.4642256927    0.6991796645    0.4580109544         -0.1989
C619       C    0.5400760702    0.8731509948    0.4124064841          0.7443
H620       H    0.5337425483    0.9050783068    0.3995716066          0.7502
H621       H    0.5591617728    0.8768479656    0.4415390213          0.7338
H622       H    0.5591318689    0.8554839882    0.3890843288          0.7221
H623       H    0.4877361697    0.8326573233    0.3925686177         -0.2187
H624       H    0.4722575217    0.8732908347    0.4269281365         -0.1955
C585       C    0.5000000000    1.1639884393    0.5000000000         -0.2089
C586       C    0.4675106387    1.1930569135    0.5015582840           -0.21
C587       C    0.4738419281    1.2356151254    0.4981576947         -0.2169
C588       C    0.5138183685    1.2540815928    0.4952785562         -0.2214
C589       C    0.5450649974    1.2232076334    0.4878223969         -0.2252
C590       C    0.5389851579    1.1802744361    0.4911531054         -0.2184
C591       C    0.5198967444    1.2972246852    0.5068420119         -0.2154
H592       H    0.4461451383    1.2567498344    0.4987542591         -0.2181
Cl593     Cl    0.4138632807    1.1792870497    0.5055006707          -0.205
C594       C    0.5773471849    1.1503006771    0.4862950492         -0.2201
F595       F    0.5829282894    1.2413205341    0.4784191954          0.7647
C596       C    0.5000000000    1.3360115607    0.5000000000         -0.2247
H597       H    0.4708309654    1.3368770420    0.4808980518          0.7588
H598       H    0.5484464623    1.3008203355    0.5263784251         -0.1989
C599       C    0.5774841252    1.1268490052    0.4427730327          0.7443
H600       H    0.5913468732    1.0949216932    0.4463327797          0.7502
H601       H    0.5450503037    1.1231520344    0.4300838250          0.7338
H602       H    0.5963908066    1.1445160118    0.4193298293          0.7221
H603       H    0.6076579535    1.1673426767    0.4899169211         -0.2187
H604       H    0.5772142816    1.1267091653    0.5121283576         -0.1955
C565       C    0.5000000000    0.8360115607    0.0000000000         -0.2089
C566       C    0.4687909507    0.8069430865    0.0091641738           -0.21
C567       C    0.4758866330    0.7643848746    0.0103045790         -0.2169
C568       C    0.5146025823    0.7459184072   -0.0000627014         -0.2214
C569       C    0.5465682709    0.7767923666   -0.0032471751         -0.2252
C570       C    0.5397330592    0.8197255639   -0.0044038718         -0.2184
C571       C    0.5165602613    0.7027753148   -0.0129788794         -0.2154
H572       H    0.4495208930    0.7432501656    0.0188084488         -0.2181
Cl573     Cl    0.4168093884    0.8207129503    0.0230024764          -0.205
C574       C    0.5775714357    0.8496993229   -0.0123727545         -0.2201
F575       F    0.5854234172    0.7586794659   -0.0067581140          0.7647
C576       C    0.5000000000    0.6639884393    0.0000000000         -0.2247
H577       H    0.4786921789    0.6631229580    0.0275988001          0.7588
H578       H    0.5371406580    0.6991796645   -0.0407854453         -0.1989
C579       C    0.5919493543    0.8731509948    0.0287059520          0.7443
H580       H    0.6038827194    0.9050783068    0.0208039030          0.7502
H581       H    0.5654572219    0.8768479656    0.0513142621          0.7338
H582       H    0.6174890883    0.8554839882    0.0446674175          0.7221
H583       H    0.6050260400    0.8326573233   -0.0257183663         -0.2187
H584       H    0.5689883776    0.8732908347   -0.0367388909         -0.1955
C545       C    0.5000000000    1.1639884393    0.0000000000         -0.2089
C546       C    0.4872090950    1.1930569135    0.0299061798           -0.21
C547       C    0.4869158895    1.2356151254    0.0227254234         -0.2169
C548       C    0.5017892874    1.2540815928   -0.0144926806         -0.2214
C549       C    0.5087319466    1.2232076334   -0.0458573998         -0.2252
C550       C    0.5090721347    1.1802744361   -0.0389333591         -0.2184
C551       C    0.5148463470    1.2972246852   -0.0149090425         -0.2154
H552       H    0.4753534654    1.2567498344    0.0479003792         -0.2181
Cl553     Cl    0.4673201312    1.1792870497    0.0798862814          -0.205
C554       C    0.5214601784    1.1503006771   -0.0755637045         -0.2201
F555       F    0.5168135857    1.2413205341   -0.0840246133          0.7647
C556       C    0.5000000000    1.3360115607    0.0000000000         -0.2247
H557       H    0.4700748532    1.3368770420    0.0178942057          0.7588
H558       H    0.5448917699    1.3008203355   -0.0320563568         -0.1989
C559       C    0.4823702320    1.1268490052   -0.0946990323          0.7443
H560       H    0.4916281633    1.0949216932   -0.1056140811          0.7502
H561       H    0.4567874093    1.1231520344   -0.0710666827          0.7338
H562       H    0.4695413367    1.1445160118   -0.1219472586          0.7221
H563       H    0.5379591418    1.1673426767   -0.1012472567         -0.2187
H564       H    0.5446401988    1.1267091653   -0.0641591380         -0.1955
C525       C    0.5000000000    1.0000000000   -0.1639884393         -0.2089
C526       C    0.5064323159    0.9681156440   -0.1930569135           -0.21
C527       C    0.5081817699    0.9750861994   -0.2356151254         -0.2169
C528       C    0.5011997105    1.0145533513   -0.2540815928         -0.2214
C529       C    0.5007901158    1.0466746582   -0.2232076334         -0.2252
C530       C    0.4990469451    1.0399650068   -0.1802744361         -0.2184
C531       C    0.4885010840    1.0176201163   -0.2972246852         -0.2154
H532       H    0.5143748855    0.9480841001   -0.2567498344         -0.2181
Cl533     Cl    0.5157257910    0.9151325075   -0.1792870497          -0.205
C534       C    0.4943784542    1.0783505642   -0.1503006771         -0.2201
F535       F    0.5006507694    1.0856878568   -0.2413205341          0.7647
C536       C    0.5000000000    1.0000000000   -0.3360115607         -0.2247
H537       H    0.5256537648    0.9763864159   -0.3368770420          0.7588
H538       H    0.4625774559    1.0405269566   -0.3008203355         -0.1989
C539       C    0.5365461810    1.0891240264   -0.1268490052          0.7443
H540       H    0.5297051686    1.1016957459   -0.0949216932          0.7502
H541       H    0.5567800259    1.0607768875   -0.1231520344          0.7338
H542       H    0.5546554426    1.1131885447   -0.1445160118          0.7221
H543       H    0.4834558333    1.1068559497   -0.1673426767         -0.2187
H544       H    0.4693616303    1.0719057206   -0.1267091653         -0.1955
C505       C    0.5000000000    1.0000000000    0.3360115607         -0.2089
C506       C    0.5325179806    0.9992464885    0.3069430865           -0.21
C507       C    0.5261044479    1.0024893005    0.2643848746         -0.2169
C508       C    0.4860689840    1.0043779143    0.2459184072         -0.2214
C509       C    0.4546473493    1.0110582582    0.2767923666         -0.2252
C510       C    0.4608077793    1.0078790808    0.3197255639         -0.2184
C511       C    0.4802787316    0.9926675283    0.2027753148         -0.2154
H512       H    0.5538075178    1.0025785706    0.2432501656         -0.2181
Cl513     Cl    0.5862464938    0.9966333847    0.3207129503          -0.205
C514       C    0.4223372447    1.0117859716    0.3496993229         -0.2201
F515       F    0.4165628789    1.0195212479    0.2586794659          0.7647
C516       C    0.5000000000    1.0000000000    0.1639884393         -0.2247
H517       H    0.5286872143    1.0198181922    0.1631229580          0.7588
H518       H    0.4522213998    0.9724303359    0.1991796645         -0.1989
C519       C    0.4211229310    1.0552912600    0.3731509948          0.7443
H520       H    0.4073525553    1.0513894227    0.4050783068          0.7502
H521       H    0.4532326831    1.0687794988    0.3768479656          0.7338
H522       H    0.4016416923    1.0782592318    0.3554839882          0.7221
H523       H    0.3921254271    1.0074148472    0.3326573233         -0.2187
H524       H    0.4231096273    0.9859638704    0.3732908347         -0.1955
C485       C    0.6639884393    0.5000000000    0.5000000000         -0.2089
C486       C    0.6930569135    0.4699952794    0.5125580088           -0.21
C487       C    0.7356151254    0.4771735392    0.5129070331         -0.2169
C488       C    0.7540815928    0.5145061537    0.4983234420         -0.2214
C489       C    0.7232076334    0.5459239015    0.4916248419         -0.2252
C490       C    0.6802744361    0.5390027150    0.4912308322         -0.2184
C491       C    0.7972246852    0.5150240169    0.4852700141         -0.2154
H492       H    0.7567498344    0.4519094507    0.5242733817         -0.2181
Cl493     Cl    0.6792870497    0.4198620589    0.5320577944          -0.205
C494       C    0.6503006771    0.5757282658    0.4791279505         -0.2201
F495       F    0.7413205341    0.5841527933    0.4838401832          0.7647
C496       C    0.8360115607    0.5000000000    0.5000000000         -0.2247
H497       H    0.8368770420    0.4818736780    0.5297851214          0.7588
H498       H    0.8008203355    0.5324044052    0.4553588134         -0.1989
C499       C    0.6268490052    0.5945591052    0.5183654857          0.7443
H500       H    0.5949216932    0.6055458011    0.5091926948          0.7502
H501       H    0.6231520344    0.5707285727    0.5437638023          0.7338
H502       H    0.6445160118    0.6217067679    0.5314058383          0.7221
H503       H    0.6673426767    0.6015393152    0.4628291660         -0.2187
H504       H    0.6267091653    0.5645042602    0.4558599643         -0.1955
C465       C    1.1639884393    0.5000000000    0.5000000000         -0.2089
C466       C    1.1930569135    0.5315391429    0.4920457994           -0.21
C467       C    1.2356151254    0.5244927000    0.4906326917         -0.2169
C468       C    1.2540815928    0.4854058559    0.4994997010         -0.2214
C469       C    1.2232076334    0.4533411635    0.5014494771         -0.2252
C470       C    1.1802744361    0.4601267015    0.5028688226         -0.2184
C471       C    1.2972246852    0.4829516921    0.5123308055         -0.2154
H472       H    1.2567498344    0.5511666782    0.4831515866         -0.2181
Cl473     Cl    1.1792870497    0.5840155521    0.4802217596          -0.205
C474       C    1.1503006771    0.4220092400    0.5093730491         -0.2201
F475       F    1.2413205341    0.4143795494    0.5034598756          0.7647
C476       C    1.3360115607    0.5000000000    0.5000000000         -0.2247
H477       H    1.3368770420    0.5223559606    0.4732431685          0.7588
H478       H    1.3008203355    0.4613146055    0.5393232917         -0.1989
C479       C    1.1268490052    0.4092256622    0.4677705875          0.7443
H480       H    1.0949216932    0.3969965311    0.4752067111          0.7502
H481       H    1.1231520344    0.4365696884    0.4462003999          0.7338
H482       H    1.1445160118    0.3843202552    0.4508363885          0.7221
H483       H    1.1673426767    0.3940605498    0.5216503193         -0.2187
H484       H    1.1267091653    0.4296465626    0.5340519630         -0.1955
C445       C    0.8360115607    0.5000000000    0.0000000000         -0.2089
C446       C    0.8069430865    0.5309073810   -0.0101351192           -0.21
C447       C    0.7643848746    0.5257072696   -0.0051744667         -0.2169
C448       C    0.7459184072    0.4879329224    0.0082234409         -0.2214
C449       C    0.7767923666    0.4597907435    0.0237142088         -0.2252
C450       C    0.8197255639    0.4647670125    0.0188877386         -0.2184
C451       C    0.7027753148    0.4790004884   -0.0013092285         -0.2154
H452       H    0.7432501656    0.5522499035   -0.0131089885         -0.2181
Cl453     Cl    0.8207129503    0.5815786862   -0.0281905966          -0.205
C454       C    0.8496993229    0.4290748685    0.0337644549         -0.2201
F455       F    0.7586794659    0.4257871113    0.0428401617          0.7647
C456       C    0.6639884393    0.5000000000    0.0000000000         -0.2247
H457       H    0.6631229580    0.5331961095    0.0106646762          0.7588
H458       H    0.6991796645    0.4462859894   -0.0125573121         -0.1989
C459       C    0.8731509948    0.4405072253    0.0757583342          0.7443
H460       H    0.9050783068    0.4261969419    0.0760100677          0.7502
H461       H    0.8768479656    0.4751468097    0.0793732973          0.7338
H462       H    0.8554839882    0.4285093675    0.1033825590          0.7221
H463       H    0.8326573233    0.3988913286    0.0383267530         -0.2187
H464       H    0.8732908347    0.4223387432    0.0088244850         -0.1955
C425       C    1.1639884393    0.5000000000    0.0000000000         -0.2089
C426       C    1.1930569135    0.5189628257   -0.0264272224           -0.21
C427       C    1.2356151254    0.5126677013   -0.0229601428         -0.2169
C428       C    1.2540815928    0.4885275806    0.0090345411         -0.2214
C429       C    1.2232076334    0.4652889381    0.0312136218         -0.2252
C430       C    1.1802744361    0.4713887617    0.0279196548         -0.2184
C431       C    1.2972246852    0.4949318242    0.0204207532         -0.2154
H432       H    1.2567498344    0.5282189094   -0.0458867208         -0.2181
Cl433     Cl    1.1792870497    0.5514242790   -0.0693205259          -0.205
C434       C    1.1503006771    0.4464646606    0.0574837380         -0.2201
F435       F    1.2413205341    0.4368203151    0.0578892021          0.7647
C436       C    1.3360115607    0.5000000000    0.0000000000         -0.2247
H437       H    1.3368770420    0.4998148242   -0.0348666419          0.7588
H438       H    1.3008203355    0.4958182584    0.0550035822         -0.1989
C439       C    1.1268490052    0.4098546216    0.0339488762          0.7443
H440       H    1.0949216932    0.4053099354    0.0475206634          0.7502
H441       H    1.1231520344    0.4168268602   -0.0001737945          0.7338
H442       H    1.1445160118    0.3799007771    0.0370815414          0.7221
H443       H    1.1673426767    0.4330342890    0.0848969786         -0.2187
H444       H    1.1267091653    0.4682232854    0.0714099626         -0.1955
C405       C    1.0000000000    0.5000000000   -0.1639884393         -0.2089
C406       C    0.9674820194    0.5007535115   -0.1930569135           -0.21
C407       C    0.9738955521    0.4975106995   -0.2356151254         -0.2169
C408       C    1.0139310160    0.4956220857   -0.2540815928         -0.2214
C409       C    1.0453526507    0.4889417418   -0.2232076334         -0.2252
C410       C    1.0391922207    0.4921209192   -0.1802744361 -0.22080000000000002
C411       C    1.0197212684    0.5073324717   -0.2972246852         -0.2154
H412       H    0.9461924822    0.4974214294   -0.2567498344         -0.2181
Cl413     Cl    0.9137535062    0.5033666153   -0.1792870497          -0.205
C414       C    1.0776627553    0.4882140284   -0.1503006771         -0.2201
F415       F    1.0834371211    0.4804787521   -0.2413205341          0.7647
C416       C    1.0000000000    0.5000000000   -0.3360115607         -0.2247
H417       H    0.9713127857    0.4801818078   -0.3368770420          0.7588
H418       H    1.0477786002    0.5275696641   -0.3008203355         -0.1989
C419       C    1.0788770690    0.4447087400   -0.1268490052          0.7443
H420       H    1.0926474447    0.4486105773   -0.0949216932          0.7502
H421       H    1.0467673169    0.4312205012   -0.1231520344          0.7338
H422       H    1.0983583077    0.4217407682   -0.1445160118          0.7221
H423       H    1.1078745729    0.4925851528   -0.1673426767         -0.2187
H424       H    1.0768903727    0.5140361296   -0.1267091653         -0.1955
C385       C    1.0000000000    0.5000000000    0.1639884393         -0.2089
C386       C    1.0007915449    0.5325170771    0.1930569135           -0.21
C387       C    1.0037261340    0.5259567860    0.2356151254         -0.2169
C388       C    1.0037114224    0.4858768033    0.2540815928         -0.2214
C389       C    1.0088920864    0.4541733832    0.2232076334         -0.2252
C390       C    1.0060090408    0.4604778352    0.1802744361         -0.2184
C391       C    0.9917392817    0.4806491835    0.2972246852         -0.2154
H392       H    1.0051308604    0.5536243626    0.2567498344         -0.2181
Cl393     Cl    1.0007328362    0.5863090652    0.1792870497          -0.205
C394       C    1.0080846441    0.4218651728    0.1503006771         -0.2201
F395       F    1.0155369819    0.4157299905    0.2413205341          0.7647
C396       C    1.0000000000    0.5000000000    0.3360115607         -0.2247
H397       H    1.0211581254    0.5277137283    0.3368770420          0.7588
H398       H    0.9701925405    0.4535845244    0.3008203355         -0.1989
C399       C    1.0514831856    0.4185862601    0.1268490052          0.7443
H400       H    1.0469318260    0.4050167094    0.0949216932          0.7502
H401       H    1.0664810277    0.4500192603    0.1231520344          0.7338
H402       H    1.0735001249    0.3980363021    0.1445160118          0.7221
H403       H    1.0022837594    0.3918950146    0.1673426767         -0.2187
H404       H    0.9823283536    0.4238629180    0.1267091653         -0.1955
C365       C    1.0000000000   -0.1639884393    0.5000000000         -0.2089
C366       C    0.9900108121   -0.1930569135    0.5309548537           -0.21
C367       C    0.9949468756   -0.2356151254    0.5257313962         -0.2169
C368       C    1.0081664179   -0.2540815928    0.4878942592         -0.2214
C369       C    1.0235242410   -0.2232076334    0.4596793094         -0.2252
C370       C    1.0187213022   -0.1802744361    0.4646782939         -0.2184
C371       C    0.9985917122   -0.2972246852    0.4790068989         -0.2154
H372       H    0.9871376680   -0.2567498344    0.5523111691         -0.2181
Cl373     Cl    0.9721945985   -0.1792870497    0.5817107792          -0.205
C374       C    1.0334294604   -0.1503006771    0.4289163600         -0.2201
F375       F    1.0424895547   -0.2413205341    0.4255858210          0.7647
C376       C    1.0000000000   -0.3360115607    0.5000000000         -0.2247
H377       H    1.0108211739   -0.3368770420    0.5331454250          0.7588
H378       H    0.9871894095   -0.3008203355    0.4463458316         -0.1989
C379       C    1.0754768091   -0.1268490052    0.4401504660          0.7443
H380       H    1.0756610251   -0.0949216932    0.4258391542          0.7502
H381       H    1.0792551587   -0.1231520344    0.4747726098          0.7338
H382       H    1.1030441216   -0.1445160118    0.4280224130          0.7221
H383       H    1.0378493042   -0.1673426767    0.3987116315         -0.2187
H384       H    1.0084579875   -0.1267091653    0.4222979743         -0.1955
C345       C    1.0000000000    0.1639884393    0.5000000000         -0.2089
C346       C    1.0051539289    0.1930569135    0.4678842117           -0.21
C347       C    1.0071803465    0.2356151254    0.4747793450         -0.2169
C348       C    1.0017799209    0.2540815928    0.5144938339         -0.2214
C349       C    1.0026533714    0.2232076334    0.5466058754         -0.2252
C350       C    1.0006436508    0.1802744361    0.5399711870         -0.2184
C351       C    0.9892138905    0.2972246852    0.5180652542         -0.2154
H352       H    1.0122902318    0.2567498344    0.4475514710         -0.2181
Cl353     Cl    1.0123241850    0.1792870497    0.4145722162          -0.205
C354       C    0.9975117562    0.1503006771    0.5785125553         -0.2201
F355       F    1.0040720726    0.2413205341    0.5855935192          0.7647
C356       C    1.0000000000    0.3360115607    0.5000000000         -0.2247
H357       H    1.0246903270    0.3368770420    0.4753808051          0.7588
H358       H    0.9642256927    0.3008203355    0.5419890456         -0.1989
C359       C    1.0400760702    0.1268490052    0.5875935159          0.7443
H360       H    1.0337425483    0.0949216932    0.6004283934          0.7502
H361       H    1.0591617728    0.1231520344    0.5584609787          0.7338
H362       H    1.0591318689    0.1445160118    0.6109156712          0.7221
H363       H    0.9877361697    0.1673426767    0.6074313823         -0.2187
H364       H    0.9722575217    0.1267091653    0.5730718635         -0.1955
C325       C    0.8360115607   -0.0000000000    0.5000000000         -0.2089
C326       C    0.8069430865    0.0261482551    0.5193456869           -0.21
C327       C    0.7643848746    0.0190935818    0.5179742580         -0.2169
C328       C    0.7459184072   -0.0136888611    0.4949152756         -0.2214
C329       C    0.7767923666   -0.0426055962    0.4809235439         -0.2252
C330       C    0.8197255639   -0.0357898730    0.4821900289         -0.2184
C331       C    0.7027753148   -0.0110815019    0.4821144225         -0.2154
H332       H    0.7432501656    0.0409216889    0.5350330326         -0.2181
Cl333     Cl    0.8207129503    0.0701912105    0.5502293316          -0.205
C334       C    0.8496993229   -0.0685738284    0.4616849540         -0.2201
F335       F    0.7586794659   -0.0778785179    0.4642541085          0.7647
C336       C    0.6639884393   -0.0000000000    0.5000000000         -0.2247
H337       H    0.6631229580    0.0105071897    0.5332462926          0.7588
H338       H    0.6991796645   -0.0208342011    0.4489234194         -0.1989
C339       C    0.8731509948   -0.0962116237    0.4953054381          0.7443
H340       H    0.9050783068   -0.1046962299    0.4837789886          0.7502
H341       H    0.8768479656   -0.0791192515    0.5256504472          0.7338
H342       H    0.8554839882   -0.1256845626    0.5015015868          0.7221
H343       H    0.8326573233   -0.0897578660    0.4397054818         -0.2187
H344       H    0.8732908347   -0.0521289184    0.4417615401         -0.1955
C305       C    1.3360115607   -0.0000000000    0.5000000000         -0.2089
C306       C    1.3069430865   -0.0185213978    0.4732615508           -0.21
C307       C    1.2643848746   -0.0122847108    0.4768326804         -0.2169
C308       C    1.2459184072    0.0113208228    0.5092237906         -0.2214
C309       C    1.2767923666    0.0341879865    0.5317856820         -0.2252
C310       C    1.3197255639    0.0281436989    0.5283908840         -0.2184
C311       C    1.2027753148    0.0047283985    0.5205020929         -0.2154
H312       H    1.2432501656   -0.0274530881    0.4536510415         -0.2181
Cl313     Cl    1.3207129503   -0.0502661493    0.4298351511          -0.205
C314       C    1.3496993229    0.0525734639    0.5583647461         -0.2201
F315       F    1.2586794659    0.0622097471    0.5589302950          0.7647
C316       C    1.1639884393   -0.0000000000    0.5000000000         -0.2247
H317       H    1.1631229580    0.0007640971    0.4651412398          0.7588
H318       H    1.1991796645    0.0032678523    0.5550654353         -0.1989
C319       C    1.3731509948    0.0895692427    0.5354410243          0.7443
H320       H    1.4050783068    0.0938879481    0.5490864031          0.7502
H321       H    1.3768479656    0.0831645589    0.5012072867          0.7338
H322       H    1.3554839882    0.1194669409    0.5390706294          0.7221
H323       H    1.3326573233    0.0655467978    0.5859972135         -0.2187
H324       H    1.3732908347    0.0305865993    0.5719277574         -0.1955
C285       C    0.0000000000   -0.3360115607    0.0000000000         -0.2089
C286       C   -0.0316846337   -0.3069430865   -0.0073532872           -0.21
C287       C   -0.0246663232   -0.2643848746   -0.0089000741         -0.2169
C288       C    0.0145819982   -0.2459184072   -0.0007776050         -0.2214
C289       C    0.0466779580   -0.2767923666    0.0005623531         -0.2252
C290       C    0.0399206240   -0.3197255639    0.0021104175         -0.2184
C291       C    0.0172796043   -0.2027753148    0.0120045342         -0.2154
H292       H   -0.0514776788   -0.2432501656   -0.0158728252         -0.2181
Cl293     Cl   -0.0843763066   -0.3207129503   -0.0181777520          -0.205
C294       C    0.0781548275   -0.3496993229    0.0078889560         -0.2201
F295       F    0.0856707459   -0.2586794659    0.0018318303          0.7647
C296       C   -0.0000000000   -0.1639884393    0.0000000000         -0.2247
H297       H   -0.0228604991   -0.1631229580   -0.0263270695          0.7588
H298       H    0.0394258384   -0.1991796645    0.0385808798         -0.1989
C299       C    0.0901453422   -0.3731509948   -0.0339489722          0.7443
H300       H    0.1025136052   -0.4050783068   -0.0267466357          0.7502
H301       H    0.0623962631   -0.3768479656   -0.0549955247          0.7338
H302       H    0.1147243751   -0.3554839882   -0.0513534984          0.7221
H303       H    0.1063318273   -0.3326573233    0.0196327768         -0.2187
H304       H    0.0709879662   -0.3732908347    0.0327085769         -0.1955
C265       C    0.0000000000    0.3360115607    0.0000000000         -0.2089
C266       C   -0.0018309474    0.3069430865    0.0324751363           -0.21
C267       C    0.0016226674    0.2643848746    0.0261726148         -0.2169
C268       C    0.0048372700    0.2459184072   -0.0137782495         -0.2214
C269       C    0.0125554533    0.2767923666   -0.0449611899         -0.2252
C270       C    0.0091738276    0.3197255639   -0.0389095228         -0.2184
C271       C   -0.0066747560    0.2027753148   -0.0199534759         -0.2154
H272       H    0.0007936349    0.2432501656    0.0538634212         -0.2181
Cl273     Cl   -0.0062235156    0.3207129503    0.0860875115          -0.205
C274       C    0.0143537265    0.3496993229   -0.0772294195         -0.2201
F275       F    0.0222761512    0.2586794659   -0.0827442167          0.7647
C276       C    0.0000000000    0.1639884393    0.0000000000         -0.2247
H277       H    0.0188564280    0.1631229580    0.0293283503          0.7588
H278       H   -0.0259708322    0.1991796645   -0.0486661782         -0.1989
C279       C    0.0578753592    0.3731509948   -0.0770010275          0.7443
H280       H    0.0544321027    0.4050783068   -0.0908931679          0.7502
H281       H    0.0702918677    0.3768479656   -0.0444618345          0.7338
H282       H    0.0814764409    0.3554839882   -0.0957102587          0.7221
H283       H    0.0109864133    0.3326573233   -0.1075695224         -0.2187
H284       H   -0.0114797874    0.3732908347   -0.0773133677         -0.1955
C245       C   -0.3360115607   -0.0000000000    0.0000000000         -0.2089
C246       C   -0.3069430865    0.0004675968   -0.0325233485           -0.21
C247       C   -0.2643848746   -0.0027187046   -0.0260815541         -0.2169
C248       C   -0.2459184072   -0.0042552689    0.0139689666         -0.2214
C249       C   -0.2767923666   -0.0106591078    0.0454481179         -0.2252
C250       C   -0.3197255639   -0.0075342134    0.0392599759         -0.2184
C251       C   -0.2027753148    0.0075055701    0.0196560419         -0.2154
H252       H   -0.2432501656   -0.0030515260   -0.0537827685         -0.2181
Cl253     Cl   -0.3207129503    0.0026082392   -0.0862727586          -0.205
C254       C   -0.3496993229   -0.0111027350    0.0777633716         -0.2201
F255       F   -0.2586794659   -0.0187869464    0.0836055198          0.7647
C256       C   -0.1639884393   -0.0000000000    0.0000000000         -0.2247
H257       H   -0.1631229580   -0.0200696332   -0.0285118717          0.7588
H258       H   -0.1991796645    0.0279886497    0.0475343719         -0.1989
C259       C   -0.3731509948   -0.0545956663    0.0793601201          0.7443
H260       H   -0.4050783068   -0.0505729160    0.0930956602          0.7502
H261       H   -0.3768479656   -0.0683656804    0.0473701924          0.7338
H262       H   -0.3554839882   -0.0773914789    0.0990425315          0.7221
H263       H   -0.3326573233   -0.0064661689    0.1079355923         -0.2187
H264       H   -0.3732908347    0.0147115778    0.0767640008         -0.1955
C225       C    0.3360115607   -0.0000000000    0.0000000000         -0.2089
C226       C    0.3069430865   -0.0240932642    0.0218518068           -0.21
C227       C    0.2643848746   -0.0213664043    0.0152024860         -0.2169
C228       C    0.2459184072    0.0076678379   -0.0124275341         -0.2214
C229       C    0.2767923666    0.0270532274   -0.0380430137         -0.2252
C230       C    0.3197255639    0.0244760881   -0.0316074547         -0.2184
C231       C    0.2027753148    0.0197098834   -0.0073630201         -0.2154
H232       H    0.2432501656   -0.0423707546    0.0332658556         -0.2181
Cl233     Cl    0.3207129503   -0.0630064823    0.0589913127          -0.205
C234       C    0.3496993229    0.0510062035   -0.0597392660         -0.2201
F235       F    0.2586794659    0.0503096085   -0.0693669633          0.7647
C236       C    0.1639884393   -0.0000000000    0.0000000000         -0.2247
H237       H    0.1631229580   -0.0346604631    0.0037906864          0.7588
H238       H    0.1991796645    0.0541683243   -0.0104246659         -0.1989
C239       C    0.3731509948    0.0234513651   -0.0934277738          0.7443
H240       H    0.4050783068    0.0364166051   -0.0994899625          0.7502
H241       H    0.3768479656   -0.0096540605   -0.0826111403          0.7338
H242       H    0.3554839882    0.0231489930   -0.1235434667          0.7221
H243       H    0.3326573233    0.0767097356   -0.0762070856         -0.2187
H244       H    0.3732908347    0.0673220406   -0.0397100138         -0.1955
C205       C    0.0000000000    0.0000000000   -0.1639884393         -0.2089
C206       C    0.0324820239   -0.0017043957   -0.1930569135           -0.21
C207       C    0.0261660935    0.0017246355   -0.2356151254         -0.2169
C208       C   -0.0137969931    0.0047835469   -0.2540815928         -0.2214
C209       C   -0.0450097703    0.0123801688   -0.2232076334         -0.2252
C210       C   -0.0389449729    0.0090221488   -0.1802744361         -0.2184
C211       C   -0.0199273165   -0.0067524531   -0.2972246852         -0.2154
H212       H    0.0538599199    0.0010035052   -0.2567498344         -0.2181
Cl213     Cl    0.0861111077   -0.0058880323   -0.1792870497          -0.205
C214       C   -0.0772847618    0.0140526967   -0.1503006771         -0.2201
F215       F   -0.0828303865    0.0219535731   -0.2413205341          0.7647
C216       C    0.0000000000    0.0000000000   -0.3360115607         -0.2247
H217       H    0.0292546544    0.0189705614   -0.3368770420          0.7588
H218       H   -0.0485646146   -0.0261602605   -0.3008203355         -0.1989
C219       C   -0.0772259516    0.0575748889   -0.1268490052          0.7443
H220       H   -0.0911045701    0.0540775285   -0.0949216932          0.7502
H221       H   -0.0447353860    0.0701180906   -0.1231520344          0.7338
H222       H   -0.0960270013    0.0811028918   -0.1445160118          0.7221
H223       H   -0.1076115139    0.0105671903   -0.1673426767         -0.2187
H224       H   -0.0772680503   -0.0117809482   -0.1267091653         -0.1955
C185       C   -0.0000000000    0.0000000000    0.3360115607         -0.2089
C186       C   -0.0147359718    0.0289972064    0.3069430865           -0.21
C187       C   -0.0145548192    0.0218127498    0.2643848746         -0.2169
C188       C    0.0027414815   -0.0143430687    0.2459184072         -0.2214
C189       C    0.0117381684   -0.0451814498    0.2767923666         -0.2252
C190       C    0.0116208317   -0.0382500503    0.3197255639         -0.2184
C191       C    0.0157975648   -0.0138971405    0.2027753148         -0.2154
H192       H   -0.0277528642    0.0461700825    0.2432501656         -0.2181
Cl193     Cl   -0.0378788300    0.0775563410    0.3207129503          -0.205
C194       C    0.0263984176   -0.0739833511    0.3496993229         -0.2201
F195       F    0.0223201192   -0.0827323672    0.2586794659          0.7647
C196       C   -0.0000000000    0.0000000000    0.1639884393         -0.2247
H197       H   -0.0310404496    0.0158810420    0.1631229580          0.7588
H198       H    0.0469087556   -0.0290249835    0.1991796645         -0.1989
C199       C   -0.0113440031   -0.0956557841    0.3731509948          0.7443
H200       H   -0.0013861665   -0.1059363031    0.4050783068          0.7502
H201       H   -0.0384301374   -0.0737626323    0.3768479656          0.7338
H202       H   -0.0223473675   -0.1236909827    0.3554839882          0.7221
H203       H    0.0445558004   -0.0985225054    0.3326573233         -0.2187
H204       H    0.0487755749   -0.0610744271    0.3732908347         -0.1955
loop_
_geom_bond_atom_site_label_1
_geom_bond_atom_site_label_2
_geom_bond_distance
_geom_bond_site_symmetry_2
_ccdc_geom_bond_type
Zn1          O5 1.942       .   S
Zn1          O6 1.922       .   S
Zn1         O10 1.922       .   S
Zn1         O17 1.922       .   S
Zn2          O5 1.942       .   S
Zn2          O7 1.922       .   S
Zn2          O9 1.922       .   S
Zn2         O13 1.922       .   S
Zn3          O5 1.942       .   S
Zn3          O8 1.922       .   S
Zn3         O11 1.922       .   S
Zn3         O14 1.922       .   S
Zn4          O5 1.942       .   S
Zn4         O12 1.922       .   S
Zn4         O15 1.922       .   S
Zn4         O16 1.922       .   S
O6          C18 1.304       .   A
O7          C19 1.304       .   A
O8          C20 1.304       .   A
O9          C18 1.304       .   A
O10         C20 1.304       .   A
O11         C19 1.304       .   A
O12         C21 1.304       .   A
O13         C22 1.304       .   A
O14         C21 1.304       .   A
O15         C22 1.304       .   A
O16         C23 1.304       .   A
O17         C23 1.304       .   A
C18        C196 1.540       .   S
C19        C236 1.540       .   S
C20        C296 1.540       .   S
C21        C205 1.540       .   S
C22        C276 1.540       .   S
C23        C256 1.540       .   S
Zn24        O28 1.942       .   S
Zn24        O29 1.922       .   S
Zn24        O33 1.922       .   S
Zn24        O40 1.922       .   S
Zn25        O28 1.942       .   S
Zn25        O30 1.922       .   S
Zn25        O32 1.922       .   S
Zn25        O36 1.922       .   S
Zn26        O28 1.942       .   S
Zn26        O31 1.922       .   S
Zn26        O34 1.922       .   S
Zn26        O37 1.922       .   S
Zn27        O28 1.942       .   S
Zn27        O35 1.922       .   S
Zn27        O38 1.922       .   S
Zn27        O39 1.922       .   S
O29         C41 1.304       .   A
O30         C42 1.304       .   A
O31         C43 1.304       .   A
O32         C41 1.304       .   A
O33         C43 1.304       .   A
O34         C42 1.304       .   A
O35         C44 1.304       .   A
O36         C45 1.304       .   A
O37         C44 1.304       .   A
O38         C45 1.304       .   A
O39         C46 1.304       .   A
O40         C46 1.304       .   A
C41        C185 1.540   1_655   S
C42        C316 1.540       .   S
C43        C345 1.540       .   S
C44        C216 1.540   1_656   S
C45        C365 1.540       .   S
C46        C325 1.540       .   S
Zn47        O51 1.942       .   S
Zn47        O52 1.922       .   S
Zn47        O56 1.922       .   S
Zn47        O63 1.922       .   S
Zn48        O51 1.942       .   S
Zn48        O53 1.922       .   S
Zn48        O55 1.922       .   S
Zn48        O59 1.922       .   S
Zn49        O51 1.942       .   S
Zn49        O54 1.922       .   S
Zn49        O57 1.922       .   S
Zn49        O60 1.922       .   S
Zn50        O51 1.942       .   S
Zn50        O58 1.922       .   S
Zn50        O61 1.922       .   S
Zn50        O62 1.922       .   S
O52         C64 1.304       .   A
O53         C65 1.304       .   A
O54         C66 1.304       .   A
O55         C64 1.304       .   A
O56         C66 1.304       .   A
O57         C65 1.304       .   A
O58         C67 1.304       .   A
O59         C68 1.304       .   A
O60         C67 1.304       .   A
O61         C68 1.304       .   A
O62         C69 1.304       .   A
O63         C69 1.304       .   A
C64        C265 1.540   1_655   S
C65        C405 1.540       .   S
C66        C445 1.540       .   S
C67        C285 1.540   1_665   S
C68        C425 1.540       .   S
C69        C385 1.540       .   S
Zn70        O74 1.942       .   S
Zn70        O75 1.922       .   S
Zn70        O79 1.922       .   S
Zn70        O86 1.922       .   S
Zn71        O74 1.942       .   S
Zn71        O76 1.922       .   S
Zn71        O78 1.922       .   S
Zn71        O82 1.922       .   S
Zn72        O74 1.942       .   S
Zn72        O77 1.922       .   S
Zn72        O80 1.922       .   S
Zn72        O83 1.922       .   S
Zn73        O74 1.942       .   S
Zn73        O81 1.922       .   S
Zn73        O84 1.922       .   S
Zn73        O85 1.922       .   S
O75         C87 1.304       .   A
O76         C88 1.304       .   A
O77         C89 1.304       .   A
O78         C87 1.304       .   A
O79         C89 1.304       .   A
O80         C88 1.304       .   A
O81         C90 1.304       .   A
O82         C91 1.304       .   A
O83         C90 1.304       .   A
O84         C91 1.304       .   A
O85         C92 1.304       .   A
O86         C92 1.304       .   A
C87        C356 1.540       .   S
C88        C396 1.540       .   S
C89        C496 1.540       .   S
C90        C376 1.540   1_565   S
C91        C465 1.540       .   S
C92        C416 1.540   1_556   S
Zn93        O97 1.942       .   S
Zn93        O98 1.922       .   S
Zn93       O102 1.922       .   S
Zn93       O109 1.922       .   S
Zn94        O97 1.942       .   S
Zn94        O99 1.922       .   S
Zn94       O101 1.922       .   S
Zn94       O105 1.922       .   S
Zn95        O97 1.942       .   S
Zn95       O100 1.922       .   S
Zn95       O103 1.922       .   S
Zn95       O106 1.922       .   S
Zn96        O97 1.942       .   S
Zn96       O104 1.922       .   S
Zn96       O107 1.922       .   S
Zn96       O108 1.922       .   S
O98        C110 1.304       .   A
O99        C111 1.304       .   A
O100       C112 1.304       .   A
O101       C110 1.304       .   A
O102       C112 1.304       .   A
O103       C111 1.304       .   A
O104       C113 1.304       .   A
O105       C114 1.304       .   A
O106       C113 1.304       .   A
O107       C114 1.304       .   A
O108       C115 1.304       .   A
O109       C115 1.304       .   A
C110       C225 1.540   1_565   S
C111       C516 1.540       .   S
C112       C565 1.540       .   S
C113       C245 1.540   1_665   S
C114       C545 1.540       .   S
C115       C525 1.540       .   S
Zn116      O120 1.942       .   S
Zn116      O121 1.922       .   S
Zn116      O125 1.922       .   S
Zn116      O132 1.922       .   S
Zn117      O120 1.942       .   S
Zn117      O122 1.922       .   S
Zn117      O124 1.922       .   S
Zn117      O128 1.922       .   S
Zn118      O120 1.942       .   S
Zn118      O123 1.922       .   S
Zn118      O126 1.922       .   S
Zn118      O129 1.922       .   S
Zn119      O120 1.942       .   S
Zn119      O127 1.922       .   S
Zn119      O130 1.922       .   S
Zn119      O131 1.922       .   S
O121       C133 1.304       .   A
O122       C134 1.304       .   A
O123       C135 1.304       .   A
O124       C133 1.304       .   A
O125       C135 1.304       .   A
O126       C134 1.304       .   A
O127       C136 1.304       .   A
O128       C137 1.304       .   A
O129       C136 1.304       .   A
O130       C137 1.304       .   A
O131       C138 1.304       .   A
O132       C138 1.304       .   A
C133       C305 1.540   1_465   S
C134       C605 1.540       .   S
C135       C505 1.540       .   S
C136       C336 1.540   1_565   S
C137       C536 1.540   1_556   S
C138       C585 1.540       .   S
Zn139      O143 1.942       .   S
Zn139      O144 1.922       .   S
Zn139      O148 1.922       .   S
Zn139      O155 1.922       .   S
Zn140      O143 1.942       .   S
Zn140      O145 1.922       .   S
Zn140      O147 1.922       .   S
Zn140      O151 1.922       .   S
Zn141      O143 1.942       .   S
Zn141      O146 1.922       .   S
Zn141      O149 1.922       .   S
Zn141      O152 1.922       .   S
Zn142      O143 1.942       .   S
Zn142      O150 1.922       .   S
Zn142      O153 1.922       .   S
Zn142      O154 1.922       .   S
O144       C156 1.304       .   A
O145       C157 1.304       .   A
O146       C158 1.304       .   A
O147       C156 1.304       .   A
O148       C158 1.304       .   A
O149       C157 1.304       .   A
O150       C159 1.304       .   A
O151       C160 1.304       .   A
O152       C159 1.304       .   A
O153       C160 1.304       .   A
O154       C161 1.304       .   A
O155       C161 1.304       .   A
C156       C436 1.540   1_455   S
C157       C556 1.540   1_545   S
C158       C656 1.540       .   S
C159       C456 1.540       .   S
C160       C636 1.540       .   S
C161       C576 1.540       .   S
Zn162      O166 1.942       .   S
Zn162      O167 1.922       .   S
Zn162      O171 1.922       .   S
Zn162      O178 1.922       .   S
Zn163      O166 1.942       .   S
Zn163      O168 1.922       .   S
Zn163      O170 1.922       .   S
Zn163      O174 1.922       .   S
Zn164      O166 1.942       .   S
Zn164      O169 1.922       .   S
Zn164      O172 1.922       .   S
Zn164      O175 1.922       .   S
Zn165      O166 1.942       .   S
Zn165      O173 1.922       .   S
Zn165      O176 1.922       .   S
Zn165      O177 1.922       .   S
O167       C179 1.304       .   A
O168       C180 1.304       .   A
O169       C181 1.304       .   A
O170       C179 1.304       .   A
O171       C181 1.304       .   A
O172       C180 1.304       .   A
O173       C182 1.304       .   A
O174       C183 1.304       .   A
O175       C182 1.304       .   A
O176       C183 1.304       .   A
O177       C184 1.304       .   A
O178       C184 1.304       .   A
C179       C476 1.540   1_455   S
C180       C645 1.540   1_556   S
C181       C596 1.540   1_545   S
C182       C485 1.540       .   S
C183       C616 1.540       .   S
C184       C625 1.540       .   S
C645       C646 0.038       .   A
C645       C650 0.038       .   A
C646       C647 0.038       .   A
C646      Cl653 0.048       .   A
C647       C648 0.039       .   A
C647       H652 0.030       .   A
C648       C649 0.039       .   A
C648       C651 0.039       .   A
C649       C650 0.038       .   A
C649       F655 0.038       .   A
C650       C654 0.043       .   A
C651       C656 0.039       .   A
C651       H658 0.030       .   A
C654       C659 0.043       .   A
C654       H663 0.031       .   A
C654       H664 0.031       .   A
C656       H657 0.030       .   A
C659       H660 0.031       .   A
C659       H661 0.031       .   A
C659       H662 0.030       .   A
C625       C626 0.038       .   A
C625       C630 0.038       .   A
C626       C627 0.038       .   A
C626      Cl633 0.048       .   A
C627       C628 0.039       .   A
C627       H632 0.030       .   A
C628       C629 0.039       .   A
C628       C631 0.039       .   A
C629       C630 0.038       .   A
C629       F635 0.038       .   A
C630       C634 0.043       .   A
C631       C636 0.039       .   A
C631       H638 0.030       .   A
C634       C639 0.043       .   A
C634       H643 0.031       .   A
C634       H644 0.031       .   A
C636       H637 0.030       .   A
C639       H640 0.031       .   A
C639       H641 0.031       .   A
C639       H642 0.030       .   A
C605       C606 0.038       .   A
C605       C610 0.038       .   A
C606       C607 0.038       .   A
C606      Cl613 0.048       .   A
C607       C608 0.039       .   A
C607       H612 0.030       .   A
C608       C609 0.039       .   A
C608       C611 0.039       .   A
C609       C610 0.038       .   A
C609       F615 0.038       .   A
C610       C614 0.043       .   A
C611       C616 0.039       .   A
C611       H618 0.030       .   A
C614       C619 0.043       .   A
C614       H623 0.031       .   A
C614       H624 0.031       .   A
C616       H617 0.030       .   A
C619       H620 0.031       .   A
C619       H621 0.031       .   A
C619       H622 0.030       .   A
C585       C586 0.038       .   A
C585       C590 0.038       .   A
C586       C587 0.038       .   A
C586      Cl593 0.048       .   A
C587       C588 0.039       .   A
C587       H592 0.030       .   A
C588       C589 0.039       .   A
C588       C591 0.039       .   A
C589       C590 0.038       .   A
C589       F595 0.038       .   A
C590       C594 0.043       .   A
C591       C596 0.039       .   A
C591       H598 0.030       .   A
C594       C599 0.043       .   A
C594       H603 0.031       .   A
C594       H604 0.031       .   A
C596       H597 0.030       .   A
C599       H600 0.031       .   A
C599       H601 0.031       .   A
C599       H602 0.030       .   A
C565       C566 0.038       .   A
C565       C570 0.038       .   A
C566       C567 0.038       .   A
C566      Cl573 0.048       .   A
C567       C568 0.039       .   A
C567       H572 0.030       .   A
C568       C569 0.039       .   A
C568       C571 0.039       .   A
C569       C570 0.038       .   A
C569       F575 0.038       .   A
C570       C574 0.043       .   A
C571       C576 0.039       .   A
C571       H578 0.030       .   A
C574       C579 0.043       .   A
C574       H583 0.031       .   A
C574       H584 0.031       .   A
C576       H577 0.030       .   A
C579       H580 0.031       .   A
C579       H581 0.031       .   A
C579       H582 0.030       .   A
C545       C546 0.038       .   A
C545       C550 0.038       .   A
C546       C547 0.038       .   A
C546      Cl553 0.048       .   A
C547       C548 0.039       .   A
C547       H552 0.030       .   A
C548       C549 0.039       .   A
C548       C551 0.039       .   A
C549       C550 0.038       .   A
C549       F555 0.038       .   A
C550       C554 0.043       .   A
C551       C556 0.039       .   A
C551       H558 0.030       .   A
C554       C559 0.043       .   A
C554       H563 0.031       .   A
C554       H564 0.031       .   A
C556       H557 0.030       .   A
C559       H560 0.031       .   A
C559       H561 0.031       .   A
C559       H562 0.030       .   A
C525       C526 0.038       .   A
C525       C530 0.038       .   A
C526       C527 0.038       .   A
C526      Cl533 0.048       .   A
C527       C528 0.039       .   A
C527       H532 0.030       .   A
C528       C529 0.039       .   A
C528       C531 0.039       .   A
C529       C530 0.038       .   A
C529       F535 0.038       .   A
C530       C534 0.043       .   A
C531       C536 0.039       .   A
C531       H538 0.030       .   A
C534       C539 0.043       .   A
C534       H543 0.031       .   A
C534       H544 0.031       .   A
C536       H537 0.030       .   A
C539       H540 0.031       .   A
C539       H541 0.031       .   A
C539       H542 0.030       .   A
C505       C506 0.038       .   A
C505       C510 0.038       .   A
C506       C507 0.038       .   A
C506      Cl513 0.048       .   A
C507       C508 0.039       .   A
C507       H512 0.030       .   A
C508       C509 0.039       .   A
C508       C511 0.039       .   A
C509       C510 0.038       .   A
C509       F515 0.038       .   A
C510       C514 0.043       .   A
C511       C516 0.039       .   A
C511       H518 0.030       .   A
C514       C519 0.043       .   A
C514       H523 0.031       .   A
C514       H524 0.031       .   A
C516       H517 0.030       .   A
C519       H520 0.031       .   A
C519       H521 0.031       .   A
C519       H522 0.030       .   A
C485       C486 0.038       .   A
C485       C490 0.038       .   A
C486       C487 0.038       .   A
C486      Cl493 0.048       .   A
C487       C488 0.039       .   A
C487       H492 0.030       .   A
C488       C489 0.039       .   A
C488       C491 0.039       .   A
C489       C490 0.038       .   A
C489       F495 0.038       .   A
C490       C494 0.043       .   A
C491       C496 0.039       .   A
C491       H498 0.030       .   A
C494       C499 0.043       .   A
C494       H503 0.031       .   A
C494       H504 0.031       .   A
C496       H497 0.030       .   A
C499       H500 0.031       .   A
C499       H501 0.031       .   A
C499       H502 0.030       .   A
C465       C466 0.038       .   A
C465       C470 0.038       .   A
C466       C467 0.038       .   A
C466      Cl473 0.048       .   A
C467       C468 0.039       .   A
C467       H472 0.030       .   A
C468       C469 0.039       .   A
C468       C471 0.039       .   A
C469       C470 0.038       .   A
C469       F475 0.038       .   A
C470       C474 0.043       .   A
C471       C476 0.039       .   A
C471       H478 0.030       .   A
C474       C479 0.043       .   A
C474       H483 0.031       .   A
C474       H484 0.031       .   A
C476       H477 0.030       .   A
C479       H480 0.031       .   A
C479       H481 0.031       .   A
C479       H482 0.030       .   A
C445       C446 0.038       .   A
C445       C450 0.038       .   A
C446       C447 0.038       .   A
C446      Cl453 0.048       .   A
C447       C448 0.039       .   A
C447       H452 0.030       .   A
C448       C449 0.039       .   A
C448       C451 0.039       .   A
C449       C450 0.038       .   A
C449       F455 0.038       .   A
C450       C454 0.043       .   A
C451       C456 0.039       .   A
C451       H458 0.030       .   A
C454       C459 0.043       .   A
C454       H463 0.031       .   A
C454       H464 0.031       .   A
C456       H457 0.030       .   A
C459       H460 0.031       .   A
C459       H461 0.031       .   A
C459       H462 0.030       .   A
C425       C426 0.038       .   A
C425       C430 0.038       .   A
C426       C427 0.038       .   A
C426      Cl433 0.048       .   A
C427       C428 0.039       .   A
C427       H432 0.030       .   A
C428       C429 0.039       .   A
C428       C431 0.039       .   A
C429       C430 0.038       .   A
C429       F435 0.038       .   A
C430       C434 0.043       .   A
C431       C436 0.039       .   A
C431       H438 0.030       .   A
C434       C439 0.043       .   A
C434       H443 0.031       .   A
C434       H444 0.031       .   A
C436       H437 0.030       .   A
C439       H440 0.031       .   A
C439       H441 0.031       .   A
C439       H442 0.030       .   A
C405       C406 0.038       .   A
C405       C410 0.038       .   A
C406       C407 0.038       .   A
C406      Cl413 0.048       .   A
C407       C408 0.039       .   A
C407       H412 0.030       .   A
C408       C409 0.039       .   A
C408       C411 0.039       .   A
C409       C410 0.038       .   A
C409       F415 0.038       .   A
C410       C414 0.043       .   A
C411       C416 0.039       .   A
C411       H418 0.030       .   A
C414       C419 0.043       .   A
C414       H423 0.031       .   A
C414       H424 0.031       .   A
C416       H417 0.030       .   A
C419       H420 0.031       .   A
C419       H421 0.031       .   A
C419       H422 0.030       .   A
C385       C386 0.038       .   A
C385       C390 0.038       .   A
C386       C387 0.038       .   A
C386      Cl393 0.048       .   A
C387       C388 0.039       .   A
C387       H392 0.030       .   A
C388       C389 0.039       .   A
C388       C391 0.039       .   A
C389       C390 0.038       .   A
C389       F395 0.038       .   A
C390       C394 0.043       .   A
C391       C396 0.039       .   A
C391       H398 0.030       .   A
C394       C399 0.043       .   A
C394       H403 0.031       .   A
C394       H404 0.031       .   A
C396       H397 0.030       .   A
C399       H400 0.031       .   A
C399       H401 0.031       .   A
C399       H402 0.030       .   A
C365       C366 0.038       .   A
C365       C370 0.038       .   A
C366       C367 0.038       .   A
C366      Cl373 0.048       .   A
C367       C368 0.039       .   A
C367       H372 0.030       .   A
C368       C369 0.039       .   A
C368       C371 0.039       .   A
C369       C370 0.038       .   A
C369       F375 0.038       .   A
C370       C374 0.043       .   A
C371       C376 0.039       .   A
C371       H378 0.030       .   A
C374       C379 0.043       .   A
C374       H383 0.031       .   A
C374       H384 0.031       .   A
C376       H377 0.030       .   A
C379       H380 0.031       .   A
C379       H381 0.031       .   A
C379       H382 0.030       .   A
C345       C346 0.038       .   A
C345       C350 0.038       .   A
C346       C347 0.038       .   A
C346      Cl353 0.048       .   A
C347       C348 0.039       .   A
C347       H352 0.030       .   A
C348       C349 0.039       .   A
C348       C351 0.039       .   A
C349       C350 0.038       .   A
C349       F355 0.038       .   A
C350       C354 0.043       .   A
C351       C356 0.039       .   A
C351       H358 0.030       .   A
C354       C359 0.043       .   A
C354       H363 0.031       .   A
C354       H364 0.031       .   A
C356       H357 0.030       .   A
C359       H360 0.031       .   A
C359       H361 0.031       .   A
C359       H362 0.030       .   A
C325       C326 0.038       .   A
C325       C330 0.038       .   A
C326       C327 0.038       .   A
C326      Cl333 0.048       .   A
C327       C328 0.039       .   A
C327       H332 0.030       .   A
C328       C329 0.039       .   A
C328       C331 0.039       .   A
C329       C330 0.038       .   A
C329       F335 0.038       .   A
C330       C334 0.043       .   A
C331       C336 0.039       .   A
C331       H338 0.030       .   A
C334       C339 0.043       .   A
C334       H343 0.031       .   A
C334       H344 0.031       .   A
C336       H337 0.030       .   A
C339       H340 0.031       .   A
C339       H341 0.031       .   A
C339       H342 0.030       .   A
C305       C306 0.038       .   A
C305       C310 0.038       .   A
C306       C307 0.038       .   A
C306      Cl313 0.048       .   A
C307       C308 0.039       .   A
C307       H312 0.030       .   A
C308       C309 0.039       .   A
C308       C311 0.039       .   A
C309       C310 0.038       .   A
C309       F315 0.038       .   A
C310       C314 0.043       .   A
C311       C316 0.039       .   A
C311       H318 0.030       .   A
C314       C319 0.043       .   A
C314       H323 0.031       .   A
C314       H324 0.031       .   A
C316       H317 0.030       .   A
C319       H320 0.031       .   A
C319       H321 0.031       .   A
C319       H322 0.030       .   A
C285       C286 0.038       .   A
C285       C290 0.038       .   A
C286       C287 0.038       .   A
C286      Cl293 0.048       .   A
C287       C288 0.039       .   A
C287       H292 0.030       .   A
C288       C289 0.039       .   A
C288       C291 0.039       .   A
C289       C290 0.038       .   A
C289       F295 0.038       .   A
C290       C294 0.043       .   A
C291       C296 0.039       .   A
C291       H298 0.030       .   A
C294       C299 0.043       .   A
C294       H303 0.031       .   A
C294       H304 0.031       .   A
C296       H297 0.030       .   A
C299       H300 0.031       .   A
C299       H301 0.031       .   A
C299       H302 0.030       .   A
C265       C266 0.038       .   A
C265       C270 0.038       .   A
C266       C267 0.038       .   A
C266      Cl273 0.048       .   A
C267       C268 0.039       .   A
C267       H272 0.030       .   A
C268       C269 0.039       .   A
C268       C271 0.039       .   A
C269       C270 0.038       .   A
C269       F275 0.038       .   A
C270       C274 0.043       .   A
C271       C276 0.039       .   A
C271       H278 0.030       .   A
C274       C279 0.043       .   A
C274       H283 0.031       .   A
C274       H284 0.031       .   A
C276       H277 0.030       .   A
C279       H280 0.031       .   A
C279       H281 0.031       .   A
C279       H282 0.030       .   A
C245       C246 0.038       .   A
C245       C250 0.038       .   A
C246       C247 0.038       .   A
C246      Cl253 0.048       .   A
C247       C248 0.039       .   A
C247       H252 0.030       .   A
C248       C249 0.039       .   A
C248       C251 0.039       .   A
C249       C250 0.038       .   A
C249       F255 0.038       .   A
C250       C254 0.043       .   A
C251       C256 0.039       .   A
C251       H258 0.030       .   A
C254       C259 0.043       .   A
C254       H263 0.031       .   A
C254       H264 0.031       .   A
C256       H257 0.030       .   A
C259       H260 0.031       .   A
C259       H261 0.031       .   A
C259       H262 0.030       .   A
C225       C226 0.038       .   A
C225       C230 0.038       .   A
C226       C227 0.038       .   A
C226      Cl233 0.048       .   A
C227       C228 0.039       .   A
C227       H232 0.030       .   A
C228       C229 0.039       .   A
C228       C231 0.039       .   A
C229       C230 0.038       .   A
C229       F235 0.038       .   A
C230       C234 0.043       .   A
C231       C236 0.039       .   A
C231       H238 0.030       .   A
C234       C239 0.043       .   A
C234       H243 0.031       .   A
C234       H244 0.031       .   A
C236       H237 0.030       .   A
C239       H240 0.031       .   A
C239       H241 0.031       .   A
C239       H242 0.030       .   A
C205       C206 0.038       .   A
C205       C210 0.038       .   A
C206       C207 0.038       .   A
C206      Cl213 0.048       .   A
C207       C208 0.039       .   A
C207       H212 0.030       .   A
C208       C209 0.039       .   A
C208       C211 0.039       .   A
C209       C210 0.038       .   A
C209       F215 0.038       .   A
C210       C214 0.043       .   A
C211       C216 0.039       .   A
C211       H218 0.030       .   A
C214       C219 0.043       .   A
C214       H223 0.031       .   A
C214       H224 0.031       .   A
C216       H217 0.030       .   A
C219       H220 0.031       .   A
C219       H221 0.031       .   A
C219       H222 0.030       .   A
C185       C186 0.038       .   A
C185       C190 0.038       .   A
C186       C187 0.038       .   A
C186      Cl193 0.048       .   A
C187       C188 0.039       .   A
C187       H192 0.030       .   A
C188       C189 0.039       .   A
C188       C191 0.039       .   A
C189       C190 0.038       .   A
C189       F195 0.038       .   A
C190       C194 0.043       .   A
C191       C196 0.039       .   A
C191       H198 0.030       .   A
C194       C199 0.043       .   A
C194       H203 0.031       .   A
C194       H204 0.031       .   A
C196       H197 0.030       .   A
C199       H200 0.031       .   A
C199       H201 0.031       .   A
C199       H202 0.030       .   A
