data_pcu_v1-6c_Zn_1_Ch_1-3_fer_tobacco
_audit_creation_date              2021-02-03
_audit_creation_method            'tobacco_3.0'
_symmetry_space_group_name_H-M    'P1'
_symmetry_Int_Tables_number       1
_symmetry_cell_setting            triclinic
loop_
_symmetry_equiv_pos_as_xyz
  x,y,z
_cell_length_a                    49.585623721195006
_cell_length_b                    49.585623721195006
_cell_length_c                    49.585623721195006
_cell_angle_alpha                 90.0
_cell_angle_beta                  90.0
_cell_angle_gamma                 90.0
loop_
_atom_site_label
_atom_site_type_symbol
_atom_site_fract_x
_atom_site_fract_y
_atom_site_fract_z
_atom_site_charge
Zn1       Zn   -0.0226113925   -0.0226113925    0.0226113925          1.4972
Zn2       Zn    0.0226113925    0.0226113925    0.0226113925             1.5
Zn3       Zn    0.0226113925   -0.0226113925   -0.0226113925          1.4911
Zn4       Zn   -0.0226113925    0.0226113925   -0.0226113925          1.4948
O5         O    0.0000000000    0.0000000000    0.0000000000         -2.2024
O6         O   -0.0166177198   -0.0166177198    0.0604328387         -1.1087
O7         O    0.0604328387    0.0166177198    0.0166177198         -1.1069
O8         O    0.0166177198   -0.0604328387   -0.0166177198          -1.102
O9         O    0.0166177198    0.0166177198    0.0604328387         -1.1088
O10        O   -0.0166177198   -0.0604328387    0.0166177198         -1.1048
O11        O    0.0604328387   -0.0166177198   -0.0166177198         -1.1106
O12        O   -0.0166177198    0.0166177198   -0.0604328387         -1.1045
O13        O    0.0166177198    0.0604328387    0.0166177198         -1.1121
O14        O    0.0166177198   -0.0166177198   -0.0604328387          -1.106
O15        O   -0.0166177198    0.0604328387   -0.0166177198         -1.1107
O16        O   -0.0604328387    0.0166177198   -0.0166177198         -1.1098
O17        O   -0.0604328387   -0.0166177198    0.0166177198         -1.1077
C18        C   -0.0000000000   -0.0000000000    0.0722548136          0.4102
C19        C    0.0722548136   -0.0000000000   -0.0000000000          0.4151
C20        C   -0.0000000000   -0.0722548136    0.0000000000          0.4047
C21        C    0.0000000000    0.0000000000   -0.0722548136          0.4085
C22        C    0.0000000000    0.0722548136   -0.0000000000          0.4198
C23        C   -0.0722548136    0.0000000000    0.0000000000          0.4104
Zn24      Zn    0.9773886075    0.0226113925    0.4773886075          1.4972
Zn25      Zn    1.0226113925   -0.0226113925    0.4773886075          1.4936
Zn26      Zn    1.0226113925    0.0226113925    0.5226113925          1.4911
Zn27      Zn    0.9773886075   -0.0226113925    0.5226113925          1.4948
O28        O    1.0000000000    0.0000000000    0.5000000000         -2.2024
O29        O    0.9833822802    0.0166177198    0.4395671613         -1.1087
O30        O    1.0604328387   -0.0166177198    0.4833822802         -1.1069
O31        O    1.0166177198    0.0604328387    0.5166177198          -1.102
O32        O    1.0166177198   -0.0166177198    0.4395671613         -1.1088
O33        O    0.9833822802    0.0604328387    0.4833822802         -1.1048
O34        O    1.0604328387    0.0166177198    0.5166177198         -1.1106
O35        O    0.9833822802   -0.0166177198    0.5604328387         -1.1045
O36        O    1.0166177198   -0.0604328387    0.4833822802         -1.1121
O37        O    1.0166177198    0.0166177198    0.5604328387          -1.106
O38        O    0.9833822802   -0.0604328387    0.5166177198         -1.1107
O39        O    0.9395671613   -0.0166177198    0.5166177198         -1.1098
O40        O    0.9395671613    0.0166177198    0.4833822802         -1.1077
C41        C    1.0000000000    0.0000000000    0.4277451864          0.4102
C42        C    1.0722548136    0.0000000000    0.5000000000          0.4151
C43        C    1.0000000000    0.0722548136    0.5000000000          0.4047
C44        C    1.0000000000    0.0000000000    0.5722548136          0.4085
C45        C    1.0000000000   -0.0722548136    0.5000000000          0.4198
C46        C    0.9277451864    0.0000000000    0.5000000000          0.4104
Zn47      Zn    1.0226113925    0.4773886075   -0.0226113925          1.4972
Zn48      Zn    0.9773886075    0.4773886075    0.0226113925          1.4936
Zn49      Zn    1.0226113925    0.5226113925    0.0226113925          1.4911
Zn50      Zn    0.9773886075    0.5226113925   -0.0226113925          1.4948
O51        O    1.0000000000    0.5000000000    0.0000000000         -2.2024
O52        O    1.0166177198    0.4395671613   -0.0166177198         -1.1087
O53        O    0.9833822802    0.4833822802    0.0604328387         -1.1069
O54        O    1.0604328387    0.5166177198    0.0166177198          -1.102
O55        O    0.9833822802    0.4395671613    0.0166177198         -1.1088
O56        O    1.0604328387    0.4833822802   -0.0166177198         -1.1048
O57        O    1.0166177198    0.5166177198    0.0604328387         -1.1106
O58        O    0.9833822802    0.5604328387   -0.0166177198         -1.1045
O59        O    0.9395671613    0.4833822802    0.0166177198         -1.1121
O60        O    1.0166177198    0.5604328387    0.0166177198          -1.106
O61        O    0.9395671613    0.5166177198   -0.0166177198         -1.1107
O62        O    0.9833822802    0.5166177198   -0.0604328387         -1.1098
O63        O    1.0166177198    0.4833822802   -0.0604328387         -1.1077
C64        C    1.0000000000    0.4277451864    0.0000000000          0.4102
C65        C    1.0000000000    0.5000000000    0.0722548136          0.4151
C66        C    1.0722548136    0.5000000000    0.0000000000          0.4047
C67        C    1.0000000000    0.5722548136    0.0000000000          0.4085
C68        C    0.9277451864    0.5000000000    0.0000000000          0.4198
C69        C    1.0000000000    0.5000000000   -0.0722548136          0.4104
Zn70      Zn    0.9773886075    0.4773886075    0.5226113925          1.4972
Zn71      Zn    1.0226113925    0.4773886075    0.4773886075          1.4936
Zn72      Zn    0.9773886075    0.5226113925    0.4773886075          1.4911
Zn73      Zn    1.0226113925    0.5226113925    0.5226113925          1.4948
O74        O    1.0000000000    0.5000000000    0.5000000000         -2.2024
O75        O    0.9833822802    0.4395671613    0.5166177198         -1.1087
O76        O    1.0166177198    0.4833822802    0.4395671613         -1.1069
O77        O    0.9395671613    0.5166177198    0.4833822802          -1.102
O78        O    1.0166177198    0.4395671613    0.4833822802         -1.1088
O79        O    0.9395671613    0.4833822802    0.5166177198         -1.1048
O80        O    0.9833822802    0.5166177198    0.4395671613         -1.1106
O81        O    1.0166177198    0.5604328387    0.5166177198         -1.1045
O82        O    1.0604328387    0.4833822802    0.4833822802         -1.1121
O83        O    0.9833822802    0.5604328387    0.4833822802          -1.106
O84        O    1.0604328387    0.5166177198    0.5166177198         -1.1107
O85        O    1.0166177198    0.5166177198    0.5604328387         -1.1098
O86        O    0.9833822802    0.4833822802    0.5604328387         -1.1077
C87        C    1.0000000000    0.4277451864    0.5000000000          0.4102
C88        C    1.0000000000    0.5000000000    0.4277451864          0.4151
C89        C    0.9277451864    0.5000000000    0.5000000000          0.4047
C90        C    1.0000000000    0.5722548136    0.5000000000          0.4085
C91        C    1.0722548136    0.5000000000    0.5000000000          0.4198
C92        C    1.0000000000    0.5000000000    0.5722548136          0.4104
Zn93      Zn    0.4773886075    0.9773886075   -0.0226113925          1.4972
Zn94      Zn    0.4773886075    1.0226113925    0.0226113925          1.4936
Zn95      Zn    0.5226113925    0.9773886075    0.0226113925          1.4911
Zn96      Zn    0.5226113925    1.0226113925   -0.0226113925          1.4948
O97        O    0.5000000000    1.0000000000    0.0000000000         -2.2024
O98        O    0.4395671613    0.9833822802   -0.0166177198         -1.1087
O99        O    0.4833822802    1.0166177198    0.0604328387         -1.1069
O100       O    0.5166177198    0.9395671613    0.0166177198          -1.102
O101       O    0.4395671613    1.0166177198    0.0166177198         -1.1088
O102       O    0.4833822802    0.9395671613   -0.0166177198         -1.1048
O103       O    0.5166177198    0.9833822802    0.0604328387         -1.1106
O104       O    0.5604328387    1.0166177198   -0.0166177198         -1.1045
O105       O    0.4833822802    1.0604328387    0.0166177198         -1.1121
O106       O    0.5604328387    0.9833822802    0.0166177198          -1.106
O107       O    0.5166177198    1.0604328387   -0.0166177198         -1.1107
O108       O    0.5166177198    1.0166177198   -0.0604328387         -1.1098
O109       O    0.4833822802    0.9833822802   -0.0604328387         -1.1077
C110       C    0.4277451864    1.0000000000    0.0000000000          0.4102
C111       C    0.5000000000    1.0000000000    0.0722548136          0.4151
C112       C    0.5000000000    0.9277451864    0.0000000000          0.4047
C113       C    0.5722548136    1.0000000000    0.0000000000          0.4085
C114       C    0.5000000000    1.0722548136    0.0000000000          0.4198
C115       C    0.5000000000    1.0000000000   -0.0722548136          0.4104
Zn116     Zn    0.4773886075    1.0226113925    0.5226113925          1.4972
Zn117     Zn    0.4773886075    0.9773886075    0.4773886075          1.4936
Zn118     Zn    0.5226113925    1.0226113925    0.4773886075          1.4911
Zn119     Zn    0.5226113925    0.9773886075    0.5226113925          1.4948
O120       O    0.5000000000    1.0000000000    0.5000000000         -2.2024
O121       O    0.4395671613    1.0166177198    0.5166177198         -1.1087
O122       O    0.4833822802    0.9833822802    0.4395671613         -1.1069
O123       O    0.5166177198    1.0604328387    0.4833822802          -1.102
O124       O    0.4395671613    0.9833822802    0.4833822802         -1.1088
O125       O    0.4833822802    1.0604328387    0.5166177198         -1.1048
O126       O    0.5166177198    1.0166177198    0.4395671613         -1.1106
O127       O    0.5604328387    0.9833822802    0.5166177198         -1.1045
O128       O    0.4833822802    0.9395671613    0.4833822802         -1.1121
O129       O    0.5604328387    1.0166177198    0.4833822802          -1.106
O130       O    0.5166177198    0.9395671613    0.5166177198         -1.1107
O131       O    0.5166177198    0.9833822802    0.5604328387         -1.1098
O132       O    0.4833822802    1.0166177198    0.5604328387         -1.1077
C133       C    0.4277451864    1.0000000000    0.5000000000          0.4102
C134       C    0.5000000000    1.0000000000    0.4277451864          0.4151
C135       C    0.5000000000    1.0722548136    0.5000000000          0.4047
C136       C    0.5722548136    1.0000000000    0.5000000000          0.4085
C137       C    0.5000000000    0.9277451864    0.5000000000          0.4198
C138       C    0.5000000000    1.0000000000    0.5722548136          0.4104
Zn139     Zn    0.4773886075    0.5226113925   -0.0226113925          1.4972
Zn140     Zn    0.4773886075    0.4773886075    0.0226113925          1.4936
Zn141     Zn    0.5226113925    0.4773886075   -0.0226113925          1.4911
Zn142     Zn    0.5226113925    0.5226113925    0.0226113925          1.4948
O143       O    0.5000000000    0.5000000000    0.0000000000         -2.2024
O144       O    0.4395671613    0.5166177198   -0.0166177198         -1.1087
O145       O    0.4833822802    0.4395671613    0.0166177198         -1.1069
O146       O    0.5166177198    0.4833822802   -0.0604328387          -1.102
O147       O    0.4395671613    0.4833822802    0.0166177198         -1.1088
O148       O    0.4833822802    0.5166177198   -0.0604328387         -1.1048
O149       O    0.5166177198    0.4395671613   -0.0166177198         -1.1106
O150       O    0.5604328387    0.5166177198    0.0166177198         -1.1045
O151       O    0.4833822802    0.4833822802    0.0604328387         -1.1121
O152       O    0.5604328387    0.4833822802   -0.0166177198          -1.106
O153       O    0.5166177198    0.5166177198    0.0604328387         -1.1107
O154       O    0.5166177198    0.5604328387    0.0166177198         -1.1098
O155       O    0.4833822802    0.5604328387   -0.0166177198         -1.1077
C156       C    0.4277451864    0.5000000000    0.0000000000          0.4102
C157       C    0.5000000000    0.4277451864    0.0000000000          0.4151
C158       C    0.5000000000    0.5000000000   -0.0722548136          0.4047
C159       C    0.5722548136    0.5000000000    0.0000000000          0.4085
C160       C    0.5000000000    0.5000000000    0.0722548136          0.4198
C161       C    0.5000000000    0.5722548136    0.0000000000          0.4104
Zn162     Zn    0.4773886075    0.4773886075    0.4773886075          1.4972
Zn163     Zn    0.4773886075    0.5226113925    0.5226113925          1.4936
Zn164     Zn    0.5226113925    0.4773886075    0.5226113925          1.4911
Zn165     Zn    0.5226113925    0.5226113925    0.4773886075          1.4948
O166       O    0.5000000000    0.5000000000    0.5000000000         -2.2024
O167       O    0.4395671613    0.4833822802    0.4833822802         -1.1087
O168       O    0.4833822802    0.5166177198    0.5604328387         -1.1069
O169       O    0.5166177198    0.4395671613    0.5166177198          -1.102
O170       O    0.4395671613    0.5166177198    0.5166177198         -1.1088
O171       O    0.4833822802    0.4395671613    0.4833822802         -1.1048
O172       O    0.5166177198    0.4833822802    0.5604328387         -1.1106
O173       O    0.5604328387    0.5166177198    0.4833822802         -1.1045
O174       O    0.4833822802    0.5604328387    0.5166177198         -1.1121
O175       O    0.5604328387    0.4833822802    0.5166177198          -1.106
O176       O    0.5166177198    0.5604328387    0.4833822802         -1.1107
O177       O    0.5166177198    0.5166177198    0.4395671613         -1.1098
O178       O    0.4833822802    0.4833822802    0.4395671613         -1.1077
C179       C    0.4277451864    0.5000000000    0.5000000000          0.4102
C180       C    0.5000000000    0.5000000000    0.5722548136          0.4151
C181       C    0.5000000000    0.4277451864    0.5000000000          0.4047
C182       C    0.5722548136    0.5000000000    0.5000000000          0.4085
C183       C    0.5000000000    0.5722548136    0.5000000000          0.4198
C184       C    0.5000000000    0.5000000000    0.4277451864          0.4104
C921       C    0.5000000000    0.5000000000   -0.1033122025          0.6343
C922       C    0.4750951721    0.5014523656   -0.1121877962          0.6352
C923       C    0.4672861219    0.5027205091   -0.1381279211         -0.3635
C924       C    0.4854599332    0.5021904216   -0.1602710232         -0.3633
C925       C    0.5111967160    0.5015182528   -0.1501842107         -0.3637
C926       C    0.5183490488    0.5007207799   -0.1234021784          0.6353
C927       C    0.4831258719    0.5018333377   -0.1887842118         -0.3631
O928       O    0.4403468644    0.5042200100   -0.1339820624         -0.3627
H929       H    0.4598339859    0.5017908107   -0.0961403056          0.6351
H930       H    0.5396193577    0.4997458910   -0.1182033418          0.6347
H931       H    0.5277856492    0.5012590508   -0.1645363677         -0.3635
C932       C    0.4839249970    0.5003341879   -0.2139939136         -0.3639
C933       C    0.4848772285    0.4939272379   -0.2467956991          0.6318
C934       C    0.5019919438    0.5060744662   -0.2730277551         -0.3583
C935       C    0.4904055230    0.4938893733   -0.3022592899          0.6327
N936       N    0.4617926443    0.4945306340   -0.2922073929          0.6328
N937       N    0.4588159680    0.4925589377   -0.2619080851          0.6307
C938       C    0.4931757990    0.5058080214   -0.3354561238         -0.3576
H939       H    0.4486006972    0.4751539074   -0.2580693042          0.6173
H940       H    0.4532911044    0.5127340747   -0.2965391222         -0.3534
H941       H    0.5233918776    0.5013381634   -0.2709104468         -0.3617
H942       H    0.4964182462    0.4726690098   -0.3028803663          0.6166
H943       H    0.5001674712    0.5280456883   -0.2731628671         -0.3416
H944       H    0.4918616609    0.4729955193   -0.2464663369          0.6159
H945       H    0.4383903391    0.5043948052   -0.1120859046         -0.3629
C946       C    0.5075661767    0.4934119746   -0.3649181733          0.6336
N947       N    0.5000000000    0.5000000000   -0.3966877975          -0.361
N948       N    0.4852214029    0.5082505163   -0.3820107577         -0.3551
N949       N    0.4828362024    0.5098941810   -0.3549009298         -0.3543
H950       H    0.5291878194    0.4982050236   -0.3633004056         -0.3626
H951       H    0.5076029290    0.4711980011   -0.3631541443          0.6166
H952       H    0.4913576248    0.5277936194   -0.3358951602         -0.3408
C889       C    0.5000000000    0.5000000000    0.1033122025          0.6343
C890       C    0.4750792828    0.4988520994    0.1121877962          0.6352
C891       C    0.4672553181    0.4976794832    0.1381279211         -0.3635
C892       C    0.4854342503    0.4979874329    0.1602710232         -0.3633
C893       C    0.5111773256    0.4983450279    0.1501842107         -0.3637
C894       C    0.5183388700    0.4990550342    0.1234021784          0.6353
C895       C    0.4831047272    0.4983730143    0.1887842118         -0.3631
O896       O    0.4402997473    0.4965093132    0.1339820624         -0.3627
H897       H    0.4598151003    0.4987001832    0.0961403056          0.6351
H898       H    0.5396195044    0.4997699104    0.1182033418          0.6347
H899       H    0.5277681877    0.4984014808    0.1645363677         -0.3635
C900       C    0.4839221133    0.4998622862    0.2139939136         -0.3639
C901       C    0.4849525717    0.5062571207    0.2467956991          0.6318
C902       C    0.5019175603    0.4939016443    0.2730277551         -0.3583
C903       C    0.4904809161    0.5062274224    0.3022592899          0.6327
N904       N    0.4618623374    0.5059358814    0.2922073929          0.6328
N905       N    0.4589099791    0.5079438077    0.2619080851          0.6307
C906       C    0.4931053300    0.4942758094    0.3354561238         -0.3576
H907       H    0.4489081742    0.5254723769    0.2580693042          0.6173
H908       H    0.4531389721    0.4878376956    0.2965391222         -0.3534
H909       H    0.5233737774    0.4983760695    0.2709104468         -0.3617
H910       H    0.4967525198    0.5273727210    0.3028803663          0.6166
H911       H    0.4998247184    0.4719543594    0.2731628671         -0.3416
H912       H    0.4921922845    0.5271019210    0.2464663369          0.6159
H913       H    0.4383412319    0.4963584413    0.1120859046         -0.3629
C914       C    0.5076461225    0.5064950688    0.3649181733          0.6336
N915       N    0.5000000000    0.5000000000    0.3966877975          -0.361
N916       N    0.4851216787    0.4919307058    0.3820107577         -0.3551
N917       N    0.4827165695    0.4903163129    0.3549009298         -0.3543
H918       H    0.5292075758    0.5014381443    0.3633004056         -0.3626
H919       H    0.5079543442    0.5287069343    0.3631541443          0.6166
H920       H    0.4910186104    0.4723140727    0.3358951602         -0.3408
C857       C    0.5000000000    0.8966877975    0.5000000000          0.6343
C858       C    0.4832276344    0.8878122038    0.4815325267          0.6352
C859       C    0.4785373788    0.8618720789    0.4751614235         -0.3635
C860       C    0.4911474382    0.8397289768    0.4882593169         -0.3633
C861       C    0.5090600808    0.8498157893    0.5067517757         -0.3637
C862       C    0.5136106686    0.8765978216    0.5123270765          0.6353
C863       C    0.4892303712    0.8112157882    0.4868808376         -0.3631
O864       O    0.4603448649    0.8660179376    0.4552364509         -0.3627
H865       H    0.4725638581    0.9038596944    0.4706099709          0.6351
H866       H    0.5281211684    0.8817966582    0.5279098183          0.6347
H867       H    0.5207276897    0.8354636323    0.5185469779         -0.3635
C868       C    0.4887519574    0.7860060864    0.4885109207         -0.3639
C869       C    0.4849480917    0.7532043009    0.4937536641          0.6318
C870       C    0.5056741140    0.7269722449    0.4970552743         -0.3583
C871       C    0.4888702993    0.6977407101    0.4976497854          0.6327
N872       N    0.4688817092    0.7077926071    0.4771665163          0.6328
N873       N    0.4653756249    0.7380919149    0.4764915644          0.6307
C874       C    0.4991905096    0.6645438762    0.4910754520         -0.3576
H875       H    0.4458979181    0.7419306958    0.4817741562          0.6173
H876       H    0.4755492977    0.7034608778    0.4582143477         -0.3534
H877       H    0.5176447086    0.7290895532    0.5154154104         -0.3617
H878       H    0.4783135706    0.6971196337    0.5170150158          0.6166
H879       H    0.5197478961    0.7268371329    0.4800849484         -0.3416
H880       H    0.4752874412    0.7535336631    0.5135927915          0.6159
H881       H    0.4590697065    0.8879140954    0.4537422904         -0.3629
C882       C    0.5007935634    0.6350818267    0.5100009682          0.6336
N883       N    0.5000000000    0.6033122025    0.5000000000          -0.361
N884       N    0.4952183282    0.6179892423    0.4837638192         -0.3551
N885       N    0.4946649935    0.6450990702    0.4809204698         -0.3543
H886       H    0.5195918057    0.6366995944    0.5217097188         -0.3626
H887       H    0.4852729683    0.6368458557    0.5258935167          0.6166
H888       H    0.5132788516    0.6641048398    0.4740992658         -0.3408
C825       C    0.5000000000    1.1033122025    0.5000000000          0.6343
C826       C    0.4765872584    1.1121877962    0.4913858633          0.6352
C827       C    0.4689214928    1.1381279211    0.4894299774         -0.3635
C828       C    0.4857949301    1.1602710232    0.4962016480         -0.3633
C829       C    0.5096588386    1.1501842107    0.5058633076         -0.3637
C830       C    0.5165345650    1.1234021784    0.5079884463          0.6353
C831       C    0.4837976633    1.1887842118    0.4949421734         -0.3631
O832       O    0.4436247630    1.1339820624    0.4800466112         -0.3627
H833       H    0.4624606474    1.0961403056    0.4856016426          0.6351
H834       H    0.5364245010    1.1182033418    0.5155888998          0.6347
H835       H    0.5249710826    1.1645363677    0.5122504100         -0.3635
C836       C    0.4851289818    1.2139939136    0.4938868811         -0.3639
C837       C    0.4885605831    1.2467956991    0.4883932607          0.6318
C838       C    0.4994003948    1.2730277551    0.5063645466         -0.3583
C839       C    0.4936440441    1.3022592899    0.4905662536          0.6327
N840       N    0.4671556741    1.2922073929    0.4797276974          0.6328
N841       N    0.4652140483    1.2619080851    0.4767313201          0.6307
C842       C    0.4914241579    1.3354561238    0.5025995701         -0.3576
H843       H    0.4627993335    1.2580693042    0.4566949534          0.6173
H844       H    0.4520919759    1.2965391222    0.4930215467         -0.3534
H845       H    0.5209112798    1.2709104468    0.5105683014         -0.3617
H846       H    0.5076307941    1.3028803663    0.4735125885          0.6166
H847       H    0.4889535794    1.2731628671    0.5257791635         -0.3416
H848       H    0.5033229266    1.2464663369    0.4719922743          0.6159
H849       H    0.4417612169    1.1120859046    0.4794255311         -0.3629
C850       C    0.5095675775    1.3649181733    0.4969816280          0.6336
N851       N    0.5000000000    1.3966877975    0.5000000000          -0.361
N852       N    0.4831561655    1.3820107577    0.5016622859         -0.3551
N853       N    0.4803130216    1.3549009298    0.5022166752         -0.3543
H854       H    0.5274762083    1.3633004056    0.5100104305         -0.3626
H855       H    0.5184723530    1.3631541443    0.4766305361          0.6166
H856       H    0.4809773760    1.3358951602    0.5220298821         -0.3408
C793       C    0.5000000000    0.8966877975    0.0000000000          0.6343
C794       C    0.5239349002    0.8878122038   -0.0070342285          0.6352
C795       C    0.5317139979    0.8618720789   -0.0084747463         -0.3635
C796       C    0.5144266790    0.8397289768   -0.0028429604         -0.3633
C797       C    0.4899717850    0.8498157893    0.0052063850         -0.3637
C798       C    0.4829696864    0.8765978216    0.0068684448          0.6353
C799       C    0.5165034625    0.8112157882   -0.0039664911         -0.3631
O800       O    0.5575799742    0.8660179376   -0.0161509022         -0.3627
H801       H    0.5384156773    0.9038596944   -0.0118638705          0.6351
H802       H    0.4626173301    0.8817966582    0.0131260832          0.6347
H803       H    0.4742678229    0.8354636323    0.0105585306         -0.3635
C804       C    0.5152454535    0.7860060864   -0.0051081847         -0.3639
C805       C    0.5121877028    0.7532043009   -0.0108183435          0.6318
C806       C    0.5001739962    0.7269722449    0.0063903603         -0.3583
C807       C    0.5069706928    0.6977407101   -0.0089890594          0.6327
N808       N    0.5341226649    0.7077926071   -0.0180377309          0.6328
N809       N    0.5362597171    0.7380919149   -0.0208980098          0.6307
C810       C    0.5083834726    0.6645438762    0.0031654729         -0.3576
H811       H    0.5400047306    0.7419306958   -0.0407288371          0.6173
H812       H    0.5482666569    0.7034608778   -0.0037692719         -0.3534
H813       H    0.4784307282    0.7290895532    0.0091507995         -0.3617
H814       H    0.4941518913    0.6971196337   -0.0269371789          0.6166
H815       H    0.5093033509    0.7268371329    0.0264581999         -0.3416
H816       H    0.4985515240    0.7535336631   -0.0281669391          0.6159
H817       H    0.5594807776    0.8879140954   -0.0166463725         -0.3629
C818       C    0.4906549163    0.6350818267   -0.0036494545          0.6336
N819       N    0.5000000000    0.6033122025    0.0000000000          -0.361
N820       N    0.5166955552    0.6179892423    0.0027814369         -0.3551
N821       N    0.5194954180    0.6450990702    0.0035241234         -0.3543
H822       H    0.4719175917    0.6366995944    0.0081565363         -0.3626
H823       H    0.4831265989    0.6368458557   -0.0245488901          0.6166
H824       H    0.5175117476    0.6641048398    0.0232489704         -0.3408
C761       C    0.5000000000    1.3966877975    0.0000000000          0.6343
C762       C    0.5015380025    1.3878122038   -0.0248996861          0.6352
C763       C    0.5028329932    1.3618720789   -0.0327043290         -0.3635
C764       C    0.5022404107    1.3397289768   -0.0145324482         -0.3633
C765       C    0.5014797393    1.3498157893    0.0112018709         -0.3637
C766       C    0.5006576748    1.3765978216    0.0183514190          0.6353
C767       C    0.5018913555    1.3112157882   -0.0168677236         -0.3631
O768       O    0.5044251269    1.3660179376   -0.0596382706         -0.3627
H769       H    0.5019289275    1.4038596944   -0.0401596181          0.6351
H770       H    0.4996096450    1.3817966582    0.0396182495          0.6347
H771       H    0.5011634909    1.3354636323    0.0277898146         -0.3635
C772       C    0.5003894665    1.2860060864   -0.0160737588         -0.3639
C773       C    0.4939792797    1.2532043009   -0.0151435658          0.6318
C774       C    0.5060675801    1.2269722449    0.0020128216         -0.3583
C775       C    0.4939224040    1.1977407101   -0.0096154342          0.6327
N776       N    0.4946620580    1.2077926071   -0.0382259385          0.6328
N777       N    0.4927006100    1.2380919149   -0.0412093776          0.6307
C778       C    0.5058314549    1.1645438762   -0.0068041874         -0.3576
H779       H    0.4753308120    1.2419306958   -0.0514844424          0.6173
H780       H    0.5128946271    1.2034608778   -0.0466648280         -0.3534
H781       H    0.5012577129    1.2290895532    0.0233963411         -0.3617
H782       H    0.4726814888    1.1971196337   -0.0036757215          0.6166
H783       H    0.5280449466    1.2268371329    0.0002639169         -0.3416
H784       H    0.4730236660    1.2535336631   -0.0082311570          0.6159
H785       H    0.5046066494    1.3879140954   -0.0615941832         -0.3629
C786       C    0.4933859941    1.1350818267    0.0075434763          0.6336
N787       N    0.5000000000    1.1033122025    0.0000000000          -0.361
N788       N    0.5083012899    1.1179892423   -0.0147501370         -0.3551
N789       N    0.5099531473    1.1450990702   -0.0171296709         -0.3543
H790       H    0.4981046599    1.1366995944    0.0291814740         -0.3626
H791       H    0.4711720256    1.1368458557    0.0075038365          0.6166
H792       H    0.5278231755    1.1641048398   -0.0085467443         -0.3408
C729       C    0.5000000000    1.0000000000   -0.1033122025          0.6343
C730       C    0.5248897787    0.9983092208   -0.1121877962          0.6352
C731       C    0.5326863275    0.9969663585   -0.1381279211         -0.3635
C732       C    0.5145184254    0.9976704480   -0.1602710232         -0.3633
C733       C    0.4887892591    0.9985890328   -0.1501842107         -0.3637
C734       C    0.4816448905    0.9994549575   -0.1234021784          0.6353
C735       C    0.5168557990    0.9980051654   -0.1887842118         -0.3631
O736       O    0.5596099912    0.9952089651   -0.1339820624         -0.3627
H737       H    0.5401470244    0.9978246552   -0.0961403056          0.6351
H738       H    0.4603848921    1.0006334790   -0.1182033418          0.6347
H739       H    0.4722035685    0.9990070730   -0.1645363677         -0.3635
C740       C    0.5160710660    0.9995118986   -0.2139939136         -0.3639
C741       C    0.5151802289    1.0059276731   -0.2467956991          0.6318
C742       C    0.4979499805    0.9939448865   -0.2730277551         -0.3583
C743       C    0.5096525504    1.0060184730   -0.3022592899          0.6327
N744       N    0.5382579768    1.0051032545   -0.2922073929          0.6328
N745       N    0.5412533969    1.0070463567   -0.2619080851          0.6307
C746       C    0.5067682725    0.9941268986   -0.3354561238         -0.3576
H747       H    0.5516348641    1.0243527710   -0.2580693042          0.6173
H748       H    0.5465848169    0.9868192405   -0.2965391222         -0.3534
H749       H    0.4765963811    0.9988858907   -0.2709104468         -0.3617
H750       H    0.5038433019    1.0272954395   -0.3028803663          0.6166
H751       H    0.4995639804    0.9719572011   -0.2731628671         -0.3416
H752       H    0.5083965518    1.0269253126   -0.2464663369          0.6159
H753       H    0.5615647530    0.9950154429   -0.1120859046         -0.3629
C754       C    0.4924972549    1.0066601745   -0.3649181733          0.6336
N755       N    0.5000000000    1.0000000000   -0.3966877975          -0.361
N756       N    0.5146989154    0.9916083470   -0.3820107577         -0.3551
N757       N    0.5170682674    0.9899419179   -0.3549009298         -0.3543
H758       H    0.4708307069    1.0020743868   -0.3633004056         -0.3626
H759       H    0.4926732178    1.0288734815   -0.3631541443          0.6166
H760       H    0.5083758366    0.9721248984   -0.3358951602         -0.3408
C697       C    0.5000000000    1.0000000000    0.3966877975          0.6343
C698       C    0.4998871070    0.9750531149    0.3878122038          0.6352
C699       C    0.4990401353    0.9671872335    0.3618720789         -0.3635
C700       C    0.4985935333    0.9853632879    0.3397289768         -0.3633
C701       C    0.4978826797    1.0110990313    0.3498157893         -0.3637
C702       C    0.4982949252    1.0182838681    0.3765978216          0.6353
C703       C    0.4990754400    0.9830517696    0.3112157882         -0.3631
O704       O    0.4989894229    0.9402063231    0.3660179376         -0.3627
H705       H    0.5003686684    0.9597957742    0.4038596944          0.6351
H706       H    0.4981262023    1.0395758380    0.3817966582          0.6347
H707       H    0.4972506902    1.0276779480    0.3354636323         -0.3635
C708       C    0.5005295140    0.9839302452    0.2860060864         -0.3639
C709       C    0.5068760853    0.9852251529    0.2532043009          0.6318
C710       C    0.4938273320    1.0016628739    0.2269722449         -0.3583
C711       C    0.5066170286    0.9907475041    0.1977407101          0.6327
N712       N    0.5075131907    0.9621414744    0.2077926071          0.6328
N713       N    0.5096418881    0.9592749722    0.2380919149          0.6307
C714       C    0.4945668150    0.9928737575    0.1645438762         -0.3576
H715       H    0.5275703604    0.9500090821    0.2419306958          0.6173
H716       H    0.4897925435    0.9526746853    0.2034608778         -0.3534
H717       H    0.4974076351    1.0232862677    0.2290895532         -0.3617
H718       H    0.5274838938    0.9978910749    0.1971196337          0.6166
H719       H    0.4719857845    0.9986611899    0.2268371329         -0.3416
H720       H    0.5274025418    0.9933235307    0.2535336631          0.6159
H721       H    0.4989199444    0.9382432343    0.3879140954         -0.3629
C722       C    0.5061722198    1.0079090335    0.1350818267          0.6336
N723       N    0.5000000000    1.0000000000    0.1033122025          -0.361
N724       N    0.4925549914    0.9847996776    0.1179892423         -0.3551
N725       N    0.4910417824    0.9823296547    0.1450990702         -0.3543
H726       H    0.5002250150    1.0292420948    0.1366995944         -0.3626
H727       H    0.5283521681    1.0091386122    0.1368458557          0.6166
H728       H    0.4727105741    0.9898775909    0.1641048398         -0.3408
C665       C    0.6033122025    0.5000000000    0.5000000000          0.6343
C666       C    0.6121877962    0.4750945438    0.4985584481          0.6352
C667       C    0.6381279211    0.4672849438    0.4972936953         -0.3635
C668       C    0.6602710232    0.4854589835    0.4978158918         -0.3633
C669       C    0.6501842107    0.5111960557    0.4984768858         -0.3637
C670       C    0.6234021784    0.5183487341    0.4992712532          0.6353
C671       C    0.6887842118    0.4831250775    0.4981739892         -0.3631
O672       O    0.6339820624    0.4403450377    0.4958058914         -0.3627
H673       H    0.5961403056    0.4598332122    0.4982266294          0.6351
H674       H    0.6182033418    0.5396194643    0.5002369065          0.6347
H675       H    0.6645363677    0.5277850999    0.4987288850         -0.3635
C676       C    0.7139939136    0.4839248534    0.4996727918         -0.3639
C677       C    0.7467956991    0.4848798667    0.5060793277          0.6318
C678       C    0.7730277551    0.5019893061    0.4939246695         -0.3583
C679       C    0.8022592899    0.4904081771    0.5061147920          0.6327
N680       N    0.7922073929    0.4617950226    0.5054859549          0.6328
N681       N    0.7619080851    0.4588192028    0.5074589434          0.6307
C682       C    0.8354561238    0.4931732778    0.4941949422         -0.3576
H683       H    0.7580693042    0.4486114901    0.5248684075          0.6173
H684       H    0.7965391222    0.4532855798    0.4872862073         -0.3534
H685       H    0.7709104468    0.5233912944    0.4986516801         -0.3617
H686       H    0.8028803663    0.4964301135    0.5273325428          0.6166
H687       H    0.7731628671    0.5001552939    0.4719542416         -0.3416
H688       H    0.7464663369    0.4918733869    0.5270080118          0.6159
H689       H    0.6120859046    0.4383884367    0.4956319458         -0.3629
C690       C    0.8649181733    0.5075690365    0.5065847396          0.6336
N691       N    0.8966877975    0.5000000000    0.5000000000          -0.361
N692       N    0.8820107577    0.4852178219    0.4917559012         -0.3551
N693       N    0.8549009298    0.4828319080    0.4901132723         -0.3543
H694       H    0.8633004056    0.5291885960    0.5017823030         -0.3626
H695       H    0.8631541443    0.5076154340    0.5287986950          0.6166
H696       H    0.8358951602    0.4913455578    0.4722101357         -0.3408
C633       C    1.3966877975    0.5000000000    0.5000000000          0.6343
C634       C    1.3878122038    0.4750603429    0.5006110033          0.6352
C635       C    1.3618720789    0.4672129418    0.5016148699         -0.3635
C636       C    1.3397289768    0.4853942901    0.5016984483         -0.3633
C637       C    1.3498157893    0.5111390965    0.5018952757         -0.3637
C638       C    1.3765978216    0.5183142693    0.5013396474          0.6353
C639       C    1.3112157882    0.4830736100    0.5012627935         -0.3631
O640       O    1.3660179376    0.4402384234    0.5022043199         -0.3627
H641       H    1.4038596944    0.4597964284    0.5004341924          0.6351
H642       H    1.3817966582    0.5396053631    0.5010831843          0.6347
H643       H    1.3354636323    0.5277273272    0.5021960958         -0.3635
C644       C    1.2860060864    0.4839228759    0.4997914681         -0.3639
C645       C    1.2532043009    0.4850907988    0.4934203058          0.6318
C646       C    1.2269722449    0.5017857965    0.5061382335         -0.3583
C647       C    1.1977407101    0.4906172218    0.4935690421          0.6327
N648       N    1.2077926071    0.4619990010    0.4932442562          0.6328
N649       N    1.2380919149    0.4590905651    0.4911732208          0.6307
C650       C    1.1645438762    0.4929836667    0.5055743967         -0.3576
H651       H    1.2419306958    0.4494685314    0.4734333418          0.6173
H652       H    1.2034608778    0.4528879405    0.5111504007         -0.3534
H653       H    1.2290895532    0.5233333886    0.5021268741         -0.3617
H654       H    1.1971196337    0.4973427043    0.4725636962          0.6166
H655       H    1.2268371329    0.4992208372    0.5280353631         -0.3416
H656       H    1.2535336631    0.4927776951    0.4727362355          0.6159
H657       H    1.3879140954    0.4382771133    0.5023129830         -0.3629
C658       C    1.1350818267    0.5077842114    0.4936710853          0.6336
N659       N    1.1033122025    0.5000000000    0.5000000000          -0.361
N660       N    1.1179892423    0.4849513681    0.5077470403         -0.3551
N661       N    1.1450990702    0.4825120530    0.5093092683         -0.3543
H662       H    1.1366995944    0.5292317716    0.4991911315         -0.3626
H663       H    1.1368458557    0.5085706616    0.4714710072          0.6166
H664       H    1.1641048398    0.4904245170    0.5274861066         -0.3408
C601       C    0.6033122025    0.5000000000    0.0000000000          0.6343
C602       C    0.6121877962    0.4963865158    0.0246840546          0.6352
C603       C    0.6381279211    0.4944438226    0.0323531742         -0.3635
C604       C    0.6602710232    0.4965529526    0.0142943819         -0.3633
C605       C    0.6501842107    0.4994615750   -0.0112863475         -0.3637
C606       C    0.6234021784    0.5008782502   -0.0183421861          0.6353
C607       C    0.6887842118    0.4967056284    0.0166506589         -0.3631
O608       O    0.6339820624    0.4906063941    0.0590598445         -0.3627
H609       H    0.5961403056    0.4947216888    0.0398579367          0.6351
H610       H    0.6182033418    0.5036998787   -0.0394470401          0.6347
H611       H    0.6645363677    0.5011629683   -0.0277898365         -0.3635
C612       C    0.7139939136    0.4982686151    0.0159849839         -0.3639
C613       C    0.7467956991    0.5047341146    0.0155937428          0.6318
C614       C    0.7730277551    0.4941218558   -0.0025128470         -0.3583
C615       C    0.8022592899    0.5052527762    0.0100897021          0.6327
N616       N    0.7922073929    0.5021247354    0.0385383121          0.6328
N617       N    0.7619080851    0.5038299967    0.0416752327          0.6307
C618       C    0.8354561238    0.4936203194    0.0062930523         -0.3576
H619       H    0.7580693042    0.5202803487    0.0533659451          0.6173
H620       H    0.7965391222    0.4832507088    0.0454239896         -0.3534
H621       H    0.7709104468    0.5007019143   -0.0234196058         -0.3617
H622       H    0.8028803663    0.5269157698    0.0059458661          0.6166
H623       H    0.7731628671    0.4720752122   -0.0026067042         -0.3416
H624       H    0.7464663369    0.5261940926    0.0104567707          0.6159
H625       H    0.6120859046    0.4902620514    0.0609937455         -0.3629
C626       C    0.8649181733    0.5072212764   -0.0069643575          0.6336
N627       N    0.8966877975    0.5000000000    0.0000000000          -0.361
N628       N    0.8820107577    0.4904950827    0.0140048028         -0.3551
N629       N    0.8549009298    0.4886501464    0.0162379675         -0.3543
H630       H    0.8633004056    0.5043274000   -0.0289210019         -0.3626
H631       H    0.8631541443    0.5293542261   -0.0050684395          0.6166
H632       H    0.8358951602    0.4715599024    0.0061916699         -0.3408
C569       C    1.3966877975    0.5000000000    0.0000000000          0.6343
C570       C    1.3878122038    0.5092235574   -0.0231794264          0.6352
C571       C    1.3618720789    0.5113792747   -0.0307914127         -0.3635
C572       C    1.3397289768    0.5041685906   -0.0141008632         -0.3633
C573       C    1.3498157893    0.4938860683    0.0095021776         -0.3637
C574       C    1.3765978216    0.4915818199    0.0163199681          0.6353
C575       C    1.3112157882    0.5054798735   -0.0160645047         -0.3631
O576       O    1.3660179376    0.5214210746   -0.0558340633         -0.3627
H577       H    1.4038596944    0.5153752851   -0.0371499165          0.6351
H578       H    1.3817966582    0.4834637390    0.0360043073          0.6347
H579       H    1.3354636323    0.4871006545    0.0246421264         -0.3635
C580       C    1.2860060864    0.5064999837   -0.0147060401         -0.3639
C581       C    1.2532043009    0.5119019701   -0.0111319255          0.6318
C582       C    1.2269722449    0.4936533137   -0.0007658668         -0.3583
C583       C    1.1977407101    0.5095967611   -0.0061070389          0.6327
N584       N    1.2077926071    0.5211244209   -0.0323028611          0.6328
N585       N    1.2380919149    0.5241705570   -0.0341654515          0.6307
C586       C    1.1645438762    0.4976256231   -0.0086409008         -0.3576
H587       H    1.2419306958    0.5442632267   -0.0360552827          0.6173
H588       H    1.2034608778    0.5082291153   -0.0477091107         -0.3534
H589       H    1.2290895532    0.4888883730    0.0206277086         -0.3617
H590       H    1.1971196337    0.5262787641    0.0083209701          0.6166
H591       H    1.2268371329    0.4745185783   -0.0117169036         -0.3416
H592       H    1.2535336631    0.5279112318    0.0040543407          0.6159
H593       H    1.3879140954    0.5220906839   -0.0576807274         -0.3629
C594       C    1.1350818267    0.5027670964    0.0096432508          0.6336
N595       N    1.1033122025    0.5000000000    0.0000000000          -0.361
N596       N    1.1179892423    0.4987788385   -0.0168815496         -0.3551
N597       N    1.1450990702    0.4982990023   -0.0197382211         -0.3543
H598       H    1.1366995944    0.4892743453    0.0272049825         -0.3626
H599       H    1.1368458557    0.5228783188    0.0190772691          0.6166
H600       H    1.1641048398    0.4784751972   -0.0195923147         -0.3408
C537       C    1.0000000000    0.5000000000   -0.3966877975          0.6343
C538       C    1.0003945930    0.4750559803   -0.3878122038          0.6352
C539       C    1.0013303343    0.4672001646   -0.3618720789         -0.3635
C540       C    1.0015716589    0.4853801033   -0.3397289768         -0.3633
C541       C    1.0019918520    0.5111222330   -0.3498157893         -0.3637
C542       C    1.0014984995    0.5183019566   -0.3765978216          0.6353
C543       C    1.0011158852    0.4830632906   -0.3112157882         -0.3631
O544       O    1.0016857195    0.4402215472   -0.3660179376         -0.3627
H545       H    1.0000853524    0.4597941745   -0.4038596944          0.6351
H546       H    1.0014267769    0.5395944741   -0.3817966582          0.6347
H547       H    1.0024365875    0.5277072292   -0.3354636323         -0.3635
C548       C    0.9996519839    0.4839252904   -0.2860060864         -0.3639
C549       C    0.9932911948    0.4851484482   -0.2532043009          0.6318
C550       C    1.0061534968    0.5017324713   -0.2269722449         -0.3583
C551       C    0.9934878751    0.4906733728   -0.1977407101          0.6327
N552       N    0.9929147973    0.4620590472   -0.2077926071          0.6328
N553       N    0.9908186050    0.4591686899   -0.2380919149          0.6307
C554       C    1.0055133101    0.4929355649   -0.1645438762         -0.3576
H555       H    0.9729959088    0.4497009374   -0.2419306958          0.6173
H556       H    1.0107412163    0.4527929681   -0.2034608778         -0.3534
H557       H    1.0023292446    0.5233140567   -0.2290895532         -0.3617
H558       H    0.9725416731    0.4975808536   -0.1971196337          0.6166
H559       H    1.0280275475    0.4989776196   -0.2268371329         -0.3416
H560       H    0.9726745979    0.4930145193   -0.2535336631          0.6159
H561       H    1.0017773613    0.4382593682   -0.3879140954         -0.3629
C562       C    0.9937388627    0.5078388308   -0.1350818267          0.6336
N563       N    1.0000000000    0.5000000000   -0.1033122025          -0.361
N564       N    1.0076161802    0.4848847179   -0.1179892423         -0.3551
N565       N    1.0091571849    0.4824319400   -0.1450990702         -0.3543
H566       H    0.9994447896    0.5292376894   -0.1366995944         -0.3626
H567       H    0.9715464439    0.5088178690   -0.1368458557          0.6166
H568       H    1.0274019909    0.4901863960   -0.1641048398         -0.3408
C505       C    1.0000000000    0.5000000000    0.1033122025          0.6343
C506       C    0.9750792828    0.4988520994    0.1121877962          0.6352
C507       C    0.9672553181    0.4976794832    0.1381279211         -0.3635
C508       C    0.9854342503    0.4979874329    0.1602710232         -0.3633
C509       C    1.0111773256    0.4983450279    0.1501842107         -0.3637
C510       C    1.0183388700    0.4990550342    0.1234021784          0.6353
C511       C    0.9831047272    0.4983730143    0.1887842118         -0.3631
O512       O    0.9402997473    0.4965093132    0.1339820624         -0.3627
H513       H    0.9598151003    0.4987001832    0.0961403056          0.6351
H514       H    1.0396195044    0.4997699104    0.1182033418          0.6347
H515       H    1.0277681877    0.4984014808    0.1645363677         -0.3635
C516       C    0.9839221133    0.4998622862    0.2139939136         -0.3639
C517       C    0.9849525717    0.5062571207    0.2467956991          0.6318
C518       C    1.0019175603    0.4939016443    0.2730277551         -0.3583
C519       C    0.9904809161    0.5062274224    0.3022592899          0.6327
N520       N    0.9618623374    0.5059358814    0.2922073929          0.6328
N521       N    0.9589099791    0.5079438077    0.2619080851          0.6307
C522       C    0.9931053300    0.4942758094    0.3354561238         -0.3576
H523       H    0.9489081742    0.5254723769    0.2580693042          0.6173
H524       H    0.9531389721    0.4878376956    0.2965391222         -0.3534
H525       H    1.0233737774    0.4983760695    0.2709104468         -0.3617
H526       H    0.9967525198    0.5273727210    0.3028803663          0.6166
H527       H    0.9998247184    0.4719543594    0.2731628671         -0.3416
H528       H    0.9921922845    0.5271019210    0.2464663369          0.6159
H529       H    0.9383412319    0.4963584413    0.1120859046         -0.3629
C530       C    1.0076461225    0.5064950688    0.3649181733          0.6336
N531       N    1.0000000000    0.5000000000    0.3966877975          -0.361
N532       N    0.9851216787    0.4919307058    0.3820107577         -0.3551
N533       N    0.9827165695    0.4903163129    0.3549009298         -0.3543
H534       H    1.0292075758    0.5014381443    0.3633004056         -0.3626
H535       H    1.0079543442    0.5287069343    0.3631541443          0.6166
H536       H    0.9910186104    0.4723140727    0.3358951602         -0.3408
C473       C    1.0000000000   -0.1033122025    0.5000000000          0.6343
C474       C    1.0045032018   -0.1121877962    0.4754626612          0.6352
C475       C    1.0067217868   -0.1381279211    0.4678687602         -0.3635
C476       C    1.0039613924   -0.1602710232    0.4858395318         -0.3633
C477       C    1.0001301863   -0.1501842107    0.5112984332         -0.3637
C478       C    0.9984594396   -0.1234021784    0.5182984641          0.6353
C479       C    1.0038939720   -0.1887842118    0.4834792764         -0.3631
O480       O    1.0115218836   -0.1339820624    0.4413182203         -0.3627
H481       H    1.0067153231   -0.0961403056    0.4603588582          0.6351
H482       H    0.9948769280   -0.1182033418    0.5392875579          0.6347
H483       H    0.9978334708   -0.1645363677    0.5277296531         -0.3635
C484       C    1.0023079488   -0.2139939136    0.4840880304         -0.3639
C485       C    0.9958325336   -0.2467956991    0.4842453537          0.6318
C486       C    1.0057834903   -0.2730277551    0.5027236408         -0.3583
C487       C    0.9951152956   -0.3022592899    0.4897270545          0.6327
N488       N    0.9992694216   -0.2922073929    0.4614100758          0.6328
N489       N    0.9976786421   -0.2619080851    0.4582135764          0.6307
C490       C    1.0066029430   -0.3354561238    0.4939416194         -0.3576
H491       H    0.9816615370   -0.2580693042    0.4459359877          0.6173
H492       H    1.0183799659   -0.2965391222    0.4552110009         -0.3534
H493       H    0.9984521631   -0.2709104468    0.5233789397         -0.3617
H494       H    0.9733166959   -0.3028803663    0.4930852861          0.6166
H495       H    1.0278123398   -0.2731628671    0.5036141992         -0.3416
H496       H    0.9742009251   -0.2464663369    0.4886034096          0.6159
H497       H    1.0119358922   -0.1120859046    0.4393980272         -0.3629
C498       C    0.9925317501   -0.3649181733    0.5066988321          0.6336
N499       N    1.0000000000   -0.3966877975    0.5000000000          -0.361
N500       N    1.0100048397   -0.3820107577    0.4863478523         -0.3551
N501       N    1.0119292770   -0.3549009298    0.4841828221         -0.3543
H502       H    0.9946302261   -0.3633004056    0.5287457174         -0.3626
H503       H    0.9704817771   -0.3631541443    0.5040042710          0.6166
H504       H    1.0286452850   -0.3358951602    0.4948401958         -0.3408
C441       C    1.0000000000    0.3966877975    0.5000000000          0.6343
C442       C    1.0045032018    0.3878122038    0.4754626612          0.6352
C443       C    1.0067217868    0.3618720789    0.4678687602         -0.3635
C444       C    1.0039613924    0.3397289768    0.4858395318         -0.3633
C445       C    1.0001301863    0.3498157893    0.5112984332         -0.3637
C446       C    0.9984594396    0.3765978216    0.5182984641          0.6353
C447       C    1.0038939720    0.3112157882    0.4834792764         -0.3631
O448       O    1.0115218836    0.3660179376    0.4413182203         -0.3627
H449       H    1.0067153231    0.4038596944    0.4603588582          0.6351
H450       H    0.9948769280    0.3817966582    0.5392875579          0.6347
H451       H    0.9978334708    0.3354636323    0.5277296531         -0.3635
C452       C    1.0023079488    0.2860060864    0.4840880304         -0.3639
C453       C    0.9958325336    0.2532043009    0.4842453537          0.6318
C454       C    1.0057834903    0.2269722449    0.5027236408         -0.3583
C455       C    0.9951152956    0.1977407101    0.4897270545          0.6327
N456       N    0.9992694216    0.2077926071    0.4614100758          0.6328
N457       N    0.9976786421    0.2380919149    0.4582135764          0.6307
C458       C    1.0066029430    0.1645438762    0.4939416194         -0.3576
H459       H    0.9816615370    0.2419306958    0.4459359877          0.6173
H460       H    1.0183799659    0.2034608778    0.4552110009         -0.3534
H461       H    0.9984521631    0.2290895532    0.5233789397         -0.3617
H462       H    0.9733166959    0.1971196337    0.4930852861          0.6166
H463       H    1.0278123398    0.2268371329    0.5036141992         -0.3416
H464       H    0.9742009251    0.2535336631    0.4886034096          0.6159
H465       H    1.0119358922    0.3879140954    0.4393980272         -0.3629
C466       C    0.9925317501    0.1350818267    0.5066988321          0.6336
N467       N    1.0000000000    0.1033122025    0.5000000000          -0.361
N468       N    1.0100048397    0.1179892423    0.4863478523         -0.3551
N469       N    1.0119292770    0.1450990702    0.4841828221         -0.3543
H470       H    0.9946302261    0.1366995944    0.5287457174         -0.3626
H471       H    0.9704817771    0.1368458557    0.5040042710          0.6166
H472       H    1.0286452850    0.1641048398    0.4948401958         -0.3408
C409       C    0.6033122025   -0.0000000000    0.5000000000          0.6343
C410       C    0.6121877962    0.0232817508    0.5089621370          0.6352
C411       C    0.6381279211    0.0303345537    0.5125464673         -0.3635
C412       C    0.6602710232    0.0131839465    0.5065111476         -0.3633
C413       C    0.6501842107   -0.0111277209    0.4980390389         -0.3637
C414       C    0.6234021784   -0.0176981785    0.4951028995          0.6353
C415       C    0.6887842118    0.0155159768    0.5068812636         -0.3631
O416       O    0.6339820624    0.0555399074    0.5221725902         -0.3627
H417       H    0.5961403056    0.0377161822    0.5139285782          0.6351
H418       H    0.6182033418   -0.0376630762    0.4877015952          0.6347
H419       H    0.6645363677   -0.0268510447    0.4927440433         -0.3635
C420       C    0.7139939136    0.0152109484    0.5052100340         -0.3639
C421       C    0.7467956991    0.0162535400    0.4988171665          0.6318
C422       C    0.7730277551   -0.0037459626    0.5051802262         -0.3583
C423       C    0.8022592899    0.0109989482    0.4970988130          0.6327
N424       N    0.7922073929    0.0380597177    0.5064166882          0.6328
N425       N    0.7619080851    0.0414952205    0.5054443158          0.6307
C426       C    0.8354561238    0.0047331553    0.5076092098         -0.3576
H427       H    0.7580693042    0.0565224586    0.4919732745          0.6173
H428       H    0.7965391222    0.0406186824    0.5263438840         -0.3534
H429       H    0.7709104468   -0.0226897228    0.4941564482         -0.3617
H430       H    0.8028803663    0.0117288306    0.4750551304          0.6166
H431       H    0.7731628671   -0.0086939567    0.5266646544         -0.3416
H432       H    0.7464663369    0.0159699607    0.4767527444          0.6159
H433       H    0.6120859046    0.0573504532    0.5229344750         -0.3629
C434       C    0.8649181733   -0.0052025840    0.4914219916          0.6336
N435       N    0.8966877975   -0.0000000000    0.5000000000          -0.361
N436       N    0.8820107577    0.0115670507    0.5123564271         -0.3551
N437       N    0.8549009298    0.0133389582    0.5146479678         -0.3543
H438       H    0.8633004056   -0.0272573627    0.4894081672         -0.3626
H439       H    0.8631541443    0.0015222178    0.4702503357          0.6166
H440       H    0.8358951602   -0.0002252132    0.5291054155         -0.3408
C377       C    1.3966877975   -0.0000000000    0.5000000000          0.6343
C378       C    1.3878122038    0.0110612739    0.4776391405          0.6352
C379       C    1.3618720789    0.0138233259    0.4702256041         -0.3635
C380       C    1.3397289768    0.0052912285    0.4862808750         -0.3633
C381       C    1.3498157893   -0.0068597003    0.5089786443         -0.3637
C382       C    1.3765978216   -0.0097058071    0.5155885991          0.6353
C383       C    1.3112157882    0.0067564703    0.4844292764         -0.3631
O384       O    1.3660179376    0.0258503132    0.4460735095         -0.3627
H385       H    1.4038596944    0.0183186865    0.4642097581          0.6351
H386       H    1.3817966582   -0.0193835786    0.5345548108          0.6347
H387       H    1.3354636323   -0.0148429687    0.5235226229         -0.3635
C388       C    1.2860060864    0.0076638038    0.4858655203         -0.3639
C389       C    1.2532043009    0.0127602373    0.4898632845          0.6318
C390       C    1.2269722449   -0.0062643393    0.4987252323         -0.3583
C391       C    1.1977407101    0.0100576381    0.4946860878          0.6327
N392       N    1.2077926071    0.0236585720    0.4695042959          0.6328
N393       N    1.2380919149    0.0268448836    0.4678932076          0.6307
C394       C    1.1645438762   -0.0016704066    0.4911958775         -0.3576
H395       H    1.2419306958    0.0470244964    0.4676285098          0.6173
H396       H    1.2034608778    0.0120465712    0.4531090872         -0.3534
H397       H    1.2290895532   -0.0127375970    0.5196653055         -0.3617
H398       H    1.1971196337    0.0255228465    0.5104113540          0.6166
H399       H    1.2268371329   -0.0244544657    0.4862680013         -0.3416
H400       H    1.2535336631    0.0274937945    0.5062901355          0.6159
H401       H    1.3879140954    0.0266665421    0.4442868044         -0.3629
C402       C    1.1350818267    0.0019810837    0.5098348572          0.6336
N403       N    1.1033122025   -0.0000000000    0.5000000000          -0.361
N404       N    1.1179892423    0.0001430583    0.4830749450         -0.3551
N405       N    1.1450990702   -0.0001050384    0.4801888987         -0.3543
H406       H    1.1366995944   -0.0128828506    0.5262522933         -0.3626
H407       H    1.1368458557    0.0212667575    0.5208586839          0.6166
H408       H    1.1641048398   -0.0198761422    0.4787370063         -0.3408
C345       C   -0.0000000000   -0.3966877975    0.0000000000          0.6343
C346       C    0.0166315900   -0.3878122038   -0.0185943549          0.6352
C347       C    0.0212733109   -0.3618720789   -0.0250009046         -0.3635
C348       C    0.0087631160   -0.3397289768   -0.0118075945         -0.3633
C349       C   -0.0090085283   -0.3498157893    0.0068204075         -0.3637
C350       C   -0.0135166309   -0.3765978216    0.0124301168          0.6353
C351       C    0.0106696558   -0.3112157882   -0.0132005974         -0.3631
O352       O    0.0393139360   -0.3660179376   -0.0450635052         -0.3627
H353       H    0.0272120833   -0.4038596944   -0.0295976049          0.6351
H354       H   -0.0279083348   -0.3817966582    0.0281226408          0.6347
H355       H   -0.0205861960   -0.3354636323    0.0187039045         -0.3635
C356       C    0.0111604391   -0.2860060864   -0.0115741956         -0.3639
C357       C    0.0150040225   -0.2532043009   -0.0063605003          0.6318
C358       C   -0.0056963205   -0.2269722449   -0.0029015362         -0.3583
C359       C    0.0111115257   -0.1977407101   -0.0024346956          0.6327
N360       N    0.0309439339   -0.2077926071   -0.0230692208          0.6328
N361       N    0.0344447897   -0.2380919149   -0.0237707879          0.6307
C362       C    0.0007416700   -0.1645438762   -0.0089304399         -0.3576
H363       H    0.0539620647   -0.2419306958   -0.0186363146          0.6173
H364       H    0.0241325641   -0.2034608778   -0.0419701910         -0.3534
H365       H   -0.0175270934   -0.2290895532    0.0155490069         -0.3617
H366       H    0.0218150615   -0.1971196337    0.0168497798          0.6166
H367       H   -0.0198986147   -0.2268371329   -0.0197644583         -0.3416
H368       H    0.0248151059   -0.2535336631    0.0134046656          0.6159
H369       H    0.0405777070   -0.3879140954   -0.0465673096         -0.3629
C370       C   -0.0007175663   -0.1350818267    0.0100067081          0.6336
N371       N   -0.0000000000   -0.1033122025    0.0000000000          -0.361
N372       N    0.0046581926   -0.1179892423   -0.0162720372         -0.3551
N373       N    0.0051899113   -0.1450990702   -0.0191195081         -0.3543
H374       H   -0.0194263183   -0.1366995944    0.0218579253         -0.3626
H375       H    0.0149233117   -0.1368458557    0.0257808929          0.6166
H376       H   -0.0134752283   -0.1641048398   -0.0257991115         -0.3408
C313       C   -0.0000000000    0.3966877975    0.0000000000          0.6343
C314       C    0.0249471373    0.3878122038   -0.0000127412          0.6352
C315       C    0.0328171843    0.3618720789    0.0007946070         -0.3635
C316       C    0.0146436095    0.3397289768    0.0013327383         -0.3633
C317       C   -0.0110882277    0.3498157893    0.0021731883         -0.3637
C318       C   -0.0182750495    0.3765978216    0.0017971309          0.6353
C319       C    0.0169526716    0.3112157882    0.0008391968         -0.3631
O320       O    0.0597980080    0.3660179376    0.0007094427         -0.3627
H321       H    0.0402018594    0.4038596944   -0.0005711327          0.6351
H322       H   -0.0395658997    0.3817966582    0.0020730783          0.6347
H323       H   -0.0276637515    0.3354636323    0.0028886614         -0.3635
C324       C    0.0160668844    0.2860060864   -0.0006104348         -0.3639
C325       C    0.0147400317    0.2532043009   -0.0069504044          0.6318
C326       C   -0.0016317672    0.2269722449    0.0061809639         -0.3583
C327       C    0.0092190551    0.1977407101   -0.0066635403          0.6327
N328       N    0.0378202090    0.2077926071   -0.0077037514          0.6328
N329       N    0.0406759547    0.2380919149   -0.0098468575          0.6307
C330       C    0.0071535137    0.1645438762    0.0053972283         -0.3576
H331       H    0.0498514393    0.2419306958   -0.0278217656          0.6173
H332       H    0.0473761195    0.2034608778    0.0099689962         -0.3534
H333       H   -0.0232729172    0.2290895532    0.0027096020         -0.3617
H334       H    0.0019704892    0.1971196337   -0.0274941659          0.6166
H335       H    0.0014798730    0.2268371329    0.0280071180         -0.3416
H336       H    0.0065383851    0.2535336631   -0.0274358171          0.6159
H337       H    0.0617614217    0.3879140954    0.0007690341         -0.3629
C338       C   -0.0079400166    0.1350818267   -0.0061323116          0.6336
N339       N    0.0000000000    0.1033122025    0.0000000000          -0.361
N340       N    0.0152376228    0.1179892423    0.0073683652         -0.3551
N341       N    0.0177152349    0.1450990702    0.0088691160         -0.3543
H342       H   -0.0292428572    0.1366995944   -0.0000777486         -0.3626
H343       H   -0.0092812782    0.1368458557   -0.0283057864          0.6166
H344       H    0.0102597106    0.1641048398    0.0272381032         -0.3408
C281       C   -0.1033122025   -0.0000000000    0.0000000000          0.6343
C282       C   -0.1121877962    0.0036894575    0.0246728135          0.6352
C283       C   -0.1381279211    0.0056557510    0.0323359161         -0.3635
C284       C   -0.1602710232    0.0034910366    0.0142837024         -0.3633
C285       C   -0.1501842107    0.0005036772   -0.0112879515         -0.3637
C286       C   -0.1234021784   -0.0009347128   -0.0183393955          0.6353
C287       C   -0.1887842118    0.0033456154    0.0166404382         -0.3631
O288       O   -0.1339820624    0.0095753783    0.0590306463         -0.3627
H289       H   -0.0961403056    0.0054009896    0.0398414985          0.6351
H290       H   -0.1182033418   -0.0038212996   -0.0394354630          0.6347
H291       H   -0.1645363677   -0.0012485144   -0.0277861246         -0.3635
C292       C   -0.2139939136    0.0017805868    0.0159795781         -0.3639
C293       C   -0.2467956991   -0.0046860865    0.0156082430          0.6318
C294       C   -0.2730277551    0.0058703805   -0.0025309311         -0.3583
C295       C   -0.3022592899   -0.0052216899    0.0101058251          0.6327
N296       N   -0.2922073929   -0.0020060844    0.0385446705          0.6328
N297       N   -0.2619080851   -0.0037016806    0.0416868260          0.6307
C298       C   -0.3354561238    0.0063990237    0.0062733825         -0.3576
H299       H   -0.2580693042   -0.0201159645    0.0534281257          0.6173
H300       H   -0.2965391222    0.0168890504    0.0453722113         -0.3534
H301       H   -0.2709104468   -0.0007740087   -0.0234173339         -0.3617
H302       H   -0.3028803663   -0.0268973378    0.0060286986          0.6166
H303       H   -0.2731628671    0.0279166307   -0.0026926589         -0.3416
H304       H   -0.2464663369   -0.0261617771    0.0105373601          0.6159
H305       H   -0.1120859046    0.0099256729    0.0609634780         -0.3629
C306       C   -0.3649181733   -0.0072426821   -0.0069420937          0.6336
N307       N   -0.3966877975   -0.0000000000    0.0000000000          -0.361
N308       N   -0.3820107577    0.0095479864    0.0139754753         -0.3551
N309       N   -0.3549009298    0.0113997888    0.0162029498         -0.3543
H310       H   -0.3633004056   -0.0044164134   -0.0289075429         -0.3626
H311       H   -0.3631541443   -0.0293696903   -0.0049780479          0.6166
H312       H   -0.3358951602    0.0284590241    0.0061040872         -0.3408
C249       C    0.1033122025   -0.0000000000    0.0000000000          0.6343
C250       C    0.1121877962    0.0248988999    0.0015506783          0.6352
C251       C    0.1381279211    0.0327028826    0.0028496421         -0.3635
C252       C    0.1602710232    0.0145313057    0.0022478086         -0.3633
C253       C    0.1501842107   -0.0112026228    0.0014740364         -0.3637
C254       C    0.1234021784   -0.0183517514    0.0006483323          0.6353
C255       C    0.1887842118    0.0168667586    0.0018999423         -0.3631
O256       O    0.1339820624    0.0596360101    0.0044554872         -0.3627
H257       H    0.0961403056    0.0401586309    0.0019493718          0.6351
H258       H    0.1182033418   -0.0396180457   -0.0004105239          0.6347
H259       H    0.1645363677   -0.0277904034    0.0011493434         -0.3635
C260       C    0.2139939136    0.0160735584    0.0003976493         -0.3639
C261       C    0.2467956991    0.0151466289   -0.0060130101          0.6318
C262       C    0.2730277551   -0.0020159102    0.0060665546         -0.3583
C263       C    0.3022592899    0.0096185269   -0.0060727001          0.6327
N264       N    0.2922073929    0.0382286510   -0.0053184811          0.6328
N265       N    0.2619080851    0.0412130883   -0.0072784100          0.6307
C266       C    0.3354561238    0.0068012178    0.0058349180         -0.3576
H267       H    0.2580693042    0.0514969944   -0.0246429749          0.6173
H268       H    0.2965391222    0.0466582575    0.0129183818         -0.3534
H269       H    0.2709104468   -0.0233969783    0.0012458020         -0.3617
H270       H    0.3028803663    0.0036896284   -0.0273166365          0.6166
H271       H    0.2731628671   -0.0002781940    0.0280448086         -0.3416
H272       H    0.2464663369    0.0082448892   -0.0269721401          0.6159
H273       H    0.1120859046    0.0615918301    0.0046380054         -0.3629
C274       C    0.3649181733   -0.0075401083   -0.0066178453          0.6336
N275       N    0.3966877975   -0.0000000000    0.0000000000          -0.361
N276       N    0.3820107577    0.0147459090    0.0083087978         -0.3551
N277       N    0.3549009298    0.0171246017    0.0099618664         -0.3543
H278       H    0.3633004056   -0.0291805054   -0.0019101957         -0.3626
H279       H    0.3631541443   -0.0074891597   -0.0288317907          0.6166
H280       H    0.3358951602    0.0085325788    0.0278275229         -0.3408
C217       C    0.0000000000    0.0000000000   -0.3966877975          0.6343
C218       C   -0.0086880073   -0.0233854303   -0.3878122038          0.6352
C219       C   -0.0106680841   -0.0310449830   -0.3618720789         -0.3635
C220       C   -0.0038431781   -0.0141930078   -0.3397289768         -0.3633
C221       C    0.0058937712    0.0096402802   -0.3498157893         -0.3637
C222       C    0.0080406058    0.0165092633   -0.3765978216          0.6353
C223       C   -0.0051089518   -0.0161862885   -0.3112157882         -0.3631
O224       O   -0.0201312648   -0.0563119636   -0.3660179376         -0.3627
H225       H   -0.0145167966   -0.0374937102   -0.4038596944          0.6351
H226       H    0.0157038135    0.0363751057   -0.3817966582          0.6347
H227       H    0.0123291821    0.0249322839   -0.3354636323         -0.3635
C228       C   -0.0061600359   -0.0148516451   -0.2860060864         -0.3639
C229       C   -0.0116427955   -0.0114027177   -0.2532043009          0.6318
C230       C    0.0063626219   -0.0006196950   -0.2269722449         -0.3583
C231       C   -0.0094537650   -0.0063261421   -0.1977407101          0.6327
N232       N   -0.0203758904   -0.0327801630   -0.2077926071          0.6328
N233       N   -0.0233783824   -0.0347123196   -0.2380919149          0.6307
C234       C    0.0025724834   -0.0085840061   -0.1645438762         -0.3576
H235       H   -0.0434222725   -0.0370637680   -0.2419306958          0.6173
H236       H   -0.0071296631   -0.0478857545   -0.2034608778         -0.3534
H237       H    0.0106342652    0.0208778117   -0.2290895532         -0.3617
H238       H   -0.0264631892    0.0077143763   -0.1971196337          0.6166
H239       H    0.0257441618   -0.0111277498   -0.2268371329         -0.3416
H240       H   -0.0279970957    0.0034113298   -0.2535336631          0.6159
H241       H   -0.0207582250   -0.0581735397   -0.3879140954         -0.3629
C242       C   -0.0029881523    0.0095770587   -0.1350818267          0.6336
N243       N    0.0000000000    0.0000000000   -0.1033122025          -0.361
N244       N    0.0016091020   -0.0168489983   -0.1179892423         -0.3551
N245       N    0.0021545128   -0.0196938783   -0.1450990702         -0.3543
H246       H    0.0100971224    0.0274444687   -0.1366995944         -0.3626
H247       H   -0.0233110306    0.0185460379   -0.1368458557          0.6166
H248       H    0.0219697183   -0.0190920770   -0.1641048398         -0.3408
C185       C   -0.0000000000   -0.0000000000    0.1033122025          0.6343
C186       C   -0.0057359583   -0.0242787686    0.1121877962          0.6352
C187       C   -0.0067557498   -0.0321241161    0.1381279211         -0.3635
C188       C   -0.0020624568   -0.0145587692    0.1602710232         -0.3633
C189       C    0.0046591635    0.0102938689    0.1501842107         -0.3637
C190       C    0.0059419910    0.0173752657    0.1234021784          0.6353
C191       C   -0.0030725955   -0.0166930070    0.1887842118         -0.3631
O192       O   -0.0130287828   -0.0583657081    0.1339820624         -0.3627
H193       H   -0.0097793063   -0.0389984725    0.0961403056          0.6351
H194       H    0.0110952821    0.0380348891    0.1182033418          0.6347
H195       H    0.0091584313    0.0262631043    0.1645363677         -0.3635
C196       C   -0.0042803354   -0.0154982623    0.2139939136         -0.3639
C197       C   -0.0101467750   -0.0127522396    0.2467956991          0.6318
C198       C    0.0063904636    0.0001701585    0.2730277551         -0.3583
C199       C   -0.0086008994   -0.0074443452    0.3022592899          0.6327
N200       N   -0.0161752521   -0.0350439327    0.2922073929          0.6328
N201       N   -0.0189163789   -0.0373318163    0.2619080851          0.6307
C202       C    0.0036120493   -0.0082009714    0.3354561238         -0.3576
H203       H   -0.0385169279   -0.0421386155    0.2580693042          0.6173
H204       H   -0.0011662990   -0.0483995592    0.2965391222         -0.3534
H205       H    0.0079767704    0.0220304733    0.2709104468         -0.3617
H206       H   -0.0272128646    0.0043899872    0.3028803663          0.6166
H207       H    0.0269205264   -0.0078659989    0.2731628671         -0.3416
H208       H   -0.0282040727   -0.0000694505    0.2464663369          0.6159
H209       H   -0.0134212418   -0.0602904213    0.1120859046         -0.3629
C210       C   -0.0041470796    0.0091351431    0.3649181733          0.6336
N211       N    0.0000000000    0.0000000000    0.3966877975          -0.361
N212       N    0.0036758916   -0.0165216759    0.3820107577         -0.3551
N213       N    0.0045681788   -0.0192775130    0.3549009298         -0.3543
H214       H    0.0066334381    0.0284806643    0.3633004056         -0.3626
H215       H   -0.0254213720    0.0155278303    0.3631541443          0.6166
H216       H    0.0241576892   -0.0162352081    0.3358951602         -0.3408
loop_
_geom_bond_atom_site_label_1
_geom_bond_atom_site_label_2
_geom_bond_distance
_geom_bond_site_symmetry_2
_ccdc_geom_bond_type
Zn1          O5 1.942       .   S
Zn1          O6 1.922       .   S
Zn1         O10 1.922       .   S
Zn1         O17 1.922       .   S
Zn2          O5 1.942       .   S
Zn2          O7 1.922       .   S
Zn2          O9 1.922       .   S
Zn2         O13 1.922       .   S
Zn3          O5 1.942       .   S
Zn3          O8 1.922       .   S
Zn3         O11 1.922       .   S
Zn3         O14 1.922       .   S
Zn4          O5 1.942       .   S
Zn4         O12 1.922       .   S
Zn4         O15 1.922       .   S
Zn4         O16 1.922       .   S
O6          C18 1.304       .   A
O7          C19 1.304       .   A
O8          C20 1.304       .   A
O9          C18 1.304       .   A
O10         C20 1.304       .   A
O11         C19 1.304       .   A
O12         C21 1.304       .   A
O13         C22 1.304       .   A
O14         C21 1.304       .   A
O15         C22 1.304       .   A
O16         C23 1.304       .   A
O17         C23 1.304       .   A
C18        C185 1.540       .   S
C19        C249 1.540       .   S
C20        N371 1.540       .   S
C21        N243 1.540       .   S
C22        N339 1.540       .   S
C23        C281 1.540       .   S
Zn24        O28 1.942       .   S
Zn24        O29 1.922       .   S
Zn24        O33 1.922       .   S
Zn24        O40 1.922       .   S
Zn25        O28 1.942       .   S
Zn25        O30 1.922       .   S
Zn25        O32 1.922       .   S
Zn25        O36 1.922       .   S
Zn26        O28 1.942       .   S
Zn26        O31 1.922       .   S
Zn26        O34 1.922       .   S
Zn26        O37 1.922       .   S
Zn27        O28 1.942       .   S
Zn27        O35 1.922       .   S
Zn27        O38 1.922       .   S
Zn27        O39 1.922       .   S
O29         C41 1.304       .   A
O30         C42 1.304       .   A
O31         C43 1.304       .   A
O32         C41 1.304       .   A
O33         C43 1.304       .   A
O34         C42 1.304       .   A
O35         C44 1.304       .   A
O36         C45 1.304       .   A
O37         C44 1.304       .   A
O38         C45 1.304       .   A
O39         C46 1.304       .   A
O40         C46 1.304       .   A
C41        N211 1.540   1_655   S
C42        N403 1.540       .   S
C43        N467 1.540       .   S
C44        C217 1.540   1_656   S
C45        C473 1.540       .   S
C46        N435 1.540       .   S
Zn47        O51 1.942       .   S
Zn47        O52 1.922       .   S
Zn47        O56 1.922       .   S
Zn47        O63 1.922       .   S
Zn48        O51 1.942       .   S
Zn48        O53 1.922       .   S
Zn48        O55 1.922       .   S
Zn48        O59 1.922       .   S
Zn49        O51 1.942       .   S
Zn49        O54 1.922       .   S
Zn49        O57 1.922       .   S
Zn49        O60 1.922       .   S
Zn50        O51 1.942       .   S
Zn50        O58 1.922       .   S
Zn50        O61 1.922       .   S
Zn50        O62 1.922       .   S
O52         C64 1.304       .   A
O53         C65 1.304       .   A
O54         C66 1.304       .   A
O55         C64 1.304       .   A
O56         C66 1.304       .   A
O57         C65 1.304       .   A
O58         C67 1.304       .   A
O59         C68 1.304       .   A
O60         C67 1.304       .   A
O61         C68 1.304       .   A
O62         C69 1.304       .   A
O63         C69 1.304       .   A
C64        C313 1.540   1_655   S
C65        C505 1.540       .   S
C66        N595 1.540       .   S
C67        C345 1.540   1_665   S
C68        N627 1.540       .   S
C69        N563 1.540       .   S
Zn70        O74 1.942       .   S
Zn70        O75 1.922       .   S
Zn70        O79 1.922       .   S
Zn70        O86 1.922       .   S
Zn71        O74 1.942       .   S
Zn71        O76 1.922       .   S
Zn71        O78 1.922       .   S
Zn71        O82 1.922       .   S
Zn72        O74 1.942       .   S
Zn72        O77 1.922       .   S
Zn72        O80 1.922       .   S
Zn72        O83 1.922       .   S
Zn73        O74 1.942       .   S
Zn73        O81 1.922       .   S
Zn73        O84 1.922       .   S
Zn73        O85 1.922       .   S
O75         C87 1.304       .   A
O76         C88 1.304       .   A
O77         C89 1.304       .   A
O78         C87 1.304       .   A
O79         C89 1.304       .   A
O80         C88 1.304       .   A
O81         C90 1.304       .   A
O82         C91 1.304       .   A
O83         C90 1.304       .   A
O84         C91 1.304       .   A
O85         C92 1.304       .   A
O86         C92 1.304       .   A
C87        C441 1.540       .   S
C88        N531 1.540       .   S
C89        N691 1.540       .   S
C90        N499 1.540   1_565   S
C91        N659 1.540       .   S
C92        C537 1.540   1_556   S
Zn93        O97 1.942       .   S
Zn93        O98 1.922       .   S
Zn93       O102 1.922       .   S
Zn93       O109 1.922       .   S
Zn94        O97 1.942       .   S
Zn94        O99 1.922       .   S
Zn94       O101 1.922       .   S
Zn94       O105 1.922       .   S
Zn95        O97 1.942       .   S
Zn95       O100 1.922       .   S
Zn95       O103 1.922       .   S
Zn95       O106 1.922       .   S
Zn96        O97 1.942       .   S
Zn96       O104 1.922       .   S
Zn96       O107 1.922       .   S
Zn96       O108 1.922       .   S
O98        C110 1.304       .   A
O99        C111 1.304       .   A
O100       C112 1.304       .   A
O101       C110 1.304       .   A
O102       C112 1.304       .   A
O103       C111 1.304       .   A
O104       C113 1.304       .   A
O105       C114 1.304       .   A
O106       C113 1.304       .   A
O107       C114 1.304       .   A
O108       C115 1.304       .   A
O109       C115 1.304       .   A
C110       N275 1.540   1_565   S
C111       N723 1.540       .   S
C112       C793 1.540       .   S
C113       N307 1.540   1_665   S
C114       N787 1.540       .   S
C115       C729 1.540       .   S
Zn116      O120 1.942       .   S
Zn116      O121 1.922       .   S
Zn116      O125 1.922       .   S
Zn116      O132 1.922       .   S
Zn117      O120 1.942       .   S
Zn117      O122 1.922       .   S
Zn117      O124 1.922       .   S
Zn117      O128 1.922       .   S
Zn118      O120 1.942       .   S
Zn118      O123 1.922       .   S
Zn118      O126 1.922       .   S
Zn118      O129 1.922       .   S
Zn119      O120 1.942       .   S
Zn119      O127 1.922       .   S
Zn119      O130 1.922       .   S
Zn119      O131 1.922       .   S
O121       C133 1.304       .   A
O122       C134 1.304       .   A
O123       C135 1.304       .   A
O124       C133 1.304       .   A
O125       C135 1.304       .   A
O126       C134 1.304       .   A
O127       C136 1.304       .   A
O128       C137 1.304       .   A
O129       C136 1.304       .   A
O130       C137 1.304       .   A
O131       C138 1.304       .   A
O132       C138 1.304       .   A
C133       C377 1.540   1_465   S
C134       C697 1.540       .   S
C135       C825 1.540       .   S
C136       C409 1.540   1_565   S
C137       C857 1.540       .   S
C138       N755 1.540   1_556   S
Zn139      O143 1.942       .   S
Zn139      O144 1.922       .   S
Zn139      O148 1.922       .   S
Zn139      O155 1.922       .   S
Zn140      O143 1.942       .   S
Zn140      O145 1.922       .   S
Zn140      O147 1.922       .   S
Zn140      O151 1.922       .   S
Zn141      O143 1.942       .   S
Zn141      O146 1.922       .   S
Zn141      O149 1.922       .   S
Zn141      O152 1.922       .   S
Zn142      O143 1.942       .   S
Zn142      O150 1.922       .   S
Zn142      O153 1.922       .   S
Zn142      O154 1.922       .   S
O144       C156 1.304       .   A
O145       C157 1.304       .   A
O146       C158 1.304       .   A
O147       C156 1.304       .   A
O148       C158 1.304       .   A
O149       C157 1.304       .   A
O150       C159 1.304       .   A
O151       C160 1.304       .   A
O152       C159 1.304       .   A
O153       C160 1.304       .   A
O154       C161 1.304       .   A
O155       C161 1.304       .   A
C156       C569 1.540   1_455   S
C157       C761 1.540   1_545   S
C158       C921 1.540       .   S
C159       C601 1.540       .   S
C160       C889 1.540       .   S
C161       N819 1.540       .   S
Zn162      O166 1.942       .   S
Zn162      O167 1.922       .   S
Zn162      O171 1.922       .   S
Zn162      O178 1.922       .   S
Zn163      O166 1.942       .   S
Zn163      O168 1.922       .   S
Zn163      O170 1.922       .   S
Zn163      O174 1.922       .   S
Zn164      O166 1.942       .   S
Zn164      O169 1.922       .   S
Zn164      O172 1.922       .   S
Zn164      O175 1.922       .   S
Zn165      O166 1.942       .   S
Zn165      O173 1.922       .   S
Zn165      O176 1.922       .   S
Zn165      O177 1.922       .   S
O167       C179 1.304       .   A
O168       C180 1.304       .   A
O169       C181 1.304       .   A
O170       C179 1.304       .   A
O171       C181 1.304       .   A
O172       C180 1.304       .   A
O173       C182 1.304       .   A
O174       C183 1.304       .   A
O175       C182 1.304       .   A
O176       C183 1.304       .   A
O177       C184 1.304       .   A
O178       C184 1.304       .   A
C179       C633 1.540   1_455   S
C180       N947 1.540   1_556   S
C181       N851 1.540   1_545   S
C182       C665 1.540       .   S
C183       N883 1.540       .   S
C184       N915 1.540       .   S
C921       C922 0.020       .   A
C921       C926 0.021       .   A
C922       C923 0.021       .   A
C922       H929 0.017       .   A
C923       C924 0.022       .   A
C923       O928 0.021       .   A
C924       C925 0.021       .   A
C924       C927 0.022       .   A
C925       C926 0.021       .   A
C925       H931 0.017       .   A
C926       H930 0.017       .   A
C927       C932 0.019       .   A
O928       H945 0.017       .   A
C932       C933 0.025       .   A
C933       C934 0.026       .   A
C933       N937 0.023       .   A
C933       H944 0.017       .   A
C934       C935 0.026       .   A
C934       H941 0.017       .   A
C934       H943 0.017       .   A
C935       N936 0.023       .   A
C935       C938 0.027       .   A
C935       H942 0.017       .   A
N936       N937 0.023       .   A
N936       H940 0.016       .   A
N937       H939 0.016       .   A
C938       C946 0.027       .   A
C938       N949 0.017       .   A
C938       H952 0.017       .   A
C946       N947 0.025       .   A
C946       H950 0.017       .   A
C946       H951 0.017       .   A
N947       N948 0.017       .   A
N948       N949 0.021       .   A
C889       C890 0.020       .   A
C889       C894 0.021       .   A
C890       C891 0.021       .   A
C890       H897 0.017       .   A
C891       C892 0.022       .   A
C891       O896 0.021       .   A
C892       C893 0.021       .   A
C892       C895 0.022       .   A
C893       C894 0.021       .   A
C893       H899 0.017       .   A
C894       H898 0.017       .   A
C895       C900 0.019       .   A
O896       H913 0.017       .   A
C900       C901 0.025       .   A
C901       C902 0.026       .   A
C901       N905 0.023       .   A
C901       H912 0.017       .   A
C902       C903 0.026       .   A
C902       H909 0.017       .   A
C902       H911 0.017       .   A
C903       N904 0.023       .   A
C903       C906 0.027       .   A
C903       H910 0.017       .   A
N904       N905 0.023       .   A
N904       H908 0.016       .   A
N905       H907 0.016       .   A
C906       C914 0.027       .   A
C906       N917 0.017       .   A
C906       H920 0.017       .   A
C914       N915 0.025       .   A
C914       H918 0.017       .   A
C914       H919 0.017       .   A
N915       N916 0.017       .   A
N916       N917 0.021       .   A
C857       C858 0.020       .   A
C857       C862 0.021       .   A
C858       C859 0.021       .   A
C858       H865 0.017       .   A
C859       C860 0.022       .   A
C859       O864 0.021       .   A
C860       C861 0.021       .   A
C860       C863 0.022       .   A
C861       C862 0.021       .   A
C861       H867 0.017       .   A
C862       H866 0.017       .   A
C863       C868 0.019       .   A
O864       H881 0.017       .   A
C868       C869 0.025       .   A
C869       C870 0.026       .   A
C869       N873 0.023       .   A
C869       H880 0.017       .   A
C870       C871 0.026       .   A
C870       H877 0.017       .   A
C870       H879 0.017       .   A
C871       N872 0.023       .   A
C871       C874 0.027       .   A
C871       H878 0.017       .   A
N872       N873 0.023       .   A
N872       H876 0.016       .   A
N873       H875 0.016       .   A
C874       C882 0.027       .   A
C874       N885 0.017       .   A
C874       H888 0.017       .   A
C882       N883 0.025       .   A
C882       H886 0.017       .   A
C882       H887 0.017       .   A
N883       N884 0.017       .   A
N884       N885 0.021       .   A
C825       C826 0.020       .   A
C825       C830 0.021       .   A
C826       C827 0.021       .   A
C826       H833 0.017       .   A
C827       C828 0.022       .   A
C827       O832 0.021       .   A
C828       C829 0.021       .   A
C828       C831 0.022       .   A
C829       C830 0.021       .   A
C829       H835 0.017       .   A
C830       H834 0.017       .   A
C831       C836 0.019       .   A
O832       H849 0.017       .   A
C836       C837 0.025       .   A
C837       C838 0.026       .   A
C837       N841 0.023       .   A
C837       H848 0.017       .   A
C838       C839 0.026       .   A
C838       H845 0.017       .   A
C838       H847 0.017       .   A
C839       N840 0.023       .   A
C839       C842 0.027       .   A
C839       H846 0.017       .   A
N840       N841 0.023       .   A
N840       H844 0.016       .   A
N841       H843 0.016       .   A
C842       C850 0.027       .   A
C842       N853 0.017       .   A
C842       H856 0.017       .   A
C850       N851 0.025       .   A
C850       H854 0.017       .   A
C850       H855 0.017       .   A
N851       N852 0.017       .   A
N852       N853 0.021       .   A
C793       C794 0.020       .   A
C793       C798 0.021       .   A
C794       C795 0.021       .   A
C794       H801 0.017       .   A
C795       C796 0.022       .   A
C795       O800 0.021       .   A
C796       C797 0.021       .   A
C796       C799 0.022       .   A
C797       C798 0.021       .   A
C797       H803 0.017       .   A
C798       H802 0.017       .   A
C799       C804 0.019       .   A
O800       H817 0.017       .   A
C804       C805 0.025       .   A
C805       C806 0.026       .   A
C805       N809 0.023       .   A
C805       H816 0.017       .   A
C806       C807 0.026       .   A
C806       H813 0.017       .   A
C806       H815 0.017       .   A
C807       N808 0.023       .   A
C807       C810 0.027       .   A
C807       H814 0.017       .   A
N808       N809 0.023       .   A
N808       H812 0.016       .   A
N809       H811 0.016       .   A
C810       C818 0.027       .   A
C810       N821 0.017       .   A
C810       H824 0.017       .   A
C818       N819 0.025       .   A
C818       H822 0.017       .   A
C818       H823 0.017       .   A
N819       N820 0.017       .   A
N820       N821 0.021       .   A
C761       C762 0.020       .   A
C761       C766 0.021       .   A
C762       C763 0.021       .   A
C762       H769 0.017       .   A
C763       C764 0.022       .   A
C763       O768 0.021       .   A
C764       C765 0.021       .   A
C764       C767 0.022       .   A
C765       C766 0.021       .   A
C765       H771 0.017       .   A
C766       H770 0.017       .   A
C767       C772 0.019       .   A
O768       H785 0.017       .   A
C772       C773 0.025       .   A
C773       C774 0.026       .   A
C773       N777 0.023       .   A
C773       H784 0.017       .   A
C774       C775 0.026       .   A
C774       H781 0.017       .   A
C774       H783 0.017       .   A
C775       N776 0.023       .   A
C775       C778 0.027       .   A
C775       H782 0.017       .   A
N776       N777 0.023       .   A
N776       H780 0.016       .   A
N777       H779 0.016       .   A
C778       C786 0.027       .   A
C778       N789 0.017       .   A
C778       H792 0.017       .   A
C786       N787 0.025       .   A
C786       H790 0.017       .   A
C786       H791 0.017       .   A
N787       N788 0.017       .   A
N788       N789 0.021       .   A
C729       C730 0.020       .   A
C729       C734 0.021       .   A
C730       C731 0.021       .   A
C730       H737 0.017       .   A
C731       C732 0.022       .   A
C731       O736 0.021       .   A
C732       C733 0.021       .   A
C732       C735 0.022       .   A
C733       C734 0.021       .   A
C733       H739 0.017       .   A
C734       H738 0.017       .   A
C735       C740 0.019       .   A
O736       H753 0.017       .   A
C740       C741 0.025       .   A
C741       C742 0.026       .   A
C741       N745 0.023       .   A
C741       H752 0.017       .   A
C742       C743 0.026       .   A
C742       H749 0.017       .   A
C742       H751 0.017       .   A
C743       N744 0.023       .   A
C743       C746 0.027       .   A
C743       H750 0.017       .   A
N744       N745 0.023       .   A
N744       H748 0.016       .   A
N745       H747 0.016       .   A
C746       C754 0.027       .   A
C746       N757 0.017       .   A
C746       H760 0.017       .   A
C754       N755 0.025       .   A
C754       H758 0.017       .   A
C754       H759 0.017       .   A
N755       N756 0.017       .   A
N756       N757 0.021       .   A
C697       C698 0.020       .   A
C697       C702 0.021       .   A
C698       C699 0.021       .   A
C698       H705 0.017       .   A
C699       C700 0.022       .   A
C699       O704 0.021       .   A
C700       C701 0.021       .   A
C700       C703 0.022       .   A
C701       C702 0.021       .   A
C701       H707 0.017       .   A
C702       H706 0.017       .   A
C703       C708 0.019       .   A
O704       H721 0.017       .   A
C708       C709 0.025       .   A
C709       C710 0.026       .   A
C709       N713 0.023       .   A
C709       H720 0.017       .   A
C710       C711 0.026       .   A
C710       H717 0.017       .   A
C710       H719 0.017       .   A
C711       N712 0.023       .   A
C711       C714 0.027       .   A
C711       H718 0.017       .   A
N712       N713 0.023       .   A
N712       H716 0.016       .   A
N713       H715 0.016       .   A
C714       C722 0.027       .   A
C714       N725 0.017       .   A
C714       H728 0.017       .   A
C722       N723 0.025       .   A
C722       H726 0.017       .   A
C722       H727 0.017       .   A
N723       N724 0.017       .   A
N724       N725 0.021       .   A
C665       C666 0.020       .   A
C665       C670 0.021       .   A
C666       C667 0.021       .   A
C666       H673 0.017       .   A
C667       C668 0.022       .   A
C667       O672 0.021       .   A
C668       C669 0.021       .   A
C668       C671 0.022       .   A
C669       C670 0.021       .   A
C669       H675 0.017       .   A
C670       H674 0.017       .   A
C671       C676 0.019       .   A
O672       H689 0.017       .   A
C676       C677 0.025       .   A
C677       C678 0.026       .   A
C677       N681 0.023       .   A
C677       H688 0.017       .   A
C678       C679 0.026       .   A
C678       H685 0.017       .   A
C678       H687 0.017       .   A
C679       N680 0.023       .   A
C679       C682 0.027       .   A
C679       H686 0.017       .   A
N680       N681 0.023       .   A
N680       H684 0.016       .   A
N681       H683 0.016       .   A
C682       C690 0.027       .   A
C682       N693 0.017       .   A
C682       H696 0.017       .   A
C690       N691 0.025       .   A
C690       H694 0.017       .   A
C690       H695 0.017       .   A
N691       N692 0.017       .   A
N692       N693 0.021       .   A
C633       C634 0.020       .   A
C633       C638 0.021       .   A
C634       C635 0.021       .   A
C634       H641 0.017       .   A
C635       C636 0.022       .   A
C635       O640 0.021       .   A
C636       C637 0.021       .   A
C636       C639 0.022       .   A
C637       C638 0.021       .   A
C637       H643 0.017       .   A
C638       H642 0.017       .   A
C639       C644 0.019       .   A
O640       H657 0.017       .   A
C644       C645 0.025       .   A
C645       C646 0.026       .   A
C645       N649 0.023       .   A
C645       H656 0.017       .   A
C646       C647 0.026       .   A
C646       H653 0.017       .   A
C646       H655 0.017       .   A
C647       N648 0.023       .   A
C647       C650 0.027       .   A
C647       H654 0.017       .   A
N648       N649 0.023       .   A
N648       H652 0.016       .   A
N649       H651 0.016       .   A
C650       C658 0.027       .   A
C650       N661 0.017       .   A
C650       H664 0.017       .   A
C658       N659 0.025       .   A
C658       H662 0.017       .   A
C658       H663 0.017       .   A
N659       N660 0.017       .   A
N660       N661 0.021       .   A
C601       C602 0.020       .   A
C601       C606 0.021       .   A
C602       C603 0.021       .   A
C602       H609 0.017       .   A
C603       C604 0.022       .   A
C603       O608 0.021       .   A
C604       C605 0.021       .   A
C604       C607 0.022       .   A
C605       C606 0.021       .   A
C605       H611 0.017       .   A
C606       H610 0.017       .   A
C607       C612 0.019       .   A
O608       H625 0.017       .   A
C612       C613 0.025       .   A
C613       C614 0.026       .   A
C613       N617 0.023       .   A
C613       H624 0.017       .   A
C614       C615 0.026       .   A
C614       H621 0.017       .   A
C614       H623 0.017       .   A
C615       N616 0.023       .   A
C615       C618 0.027       .   A
C615       H622 0.017       .   A
N616       N617 0.023       .   A
N616       H620 0.016       .   A
N617       H619 0.016       .   A
C618       C626 0.027       .   A
C618       N629 0.017       .   A
C618       H632 0.017       .   A
C626       N627 0.025       .   A
C626       H630 0.017       .   A
C626       H631 0.017       .   A
N627       N628 0.017       .   A
N628       N629 0.021       .   A
C569       C570 0.020       .   A
C569       C574 0.021       .   A
C570       C571 0.021       .   A
C570       H577 0.017       .   A
C571       C572 0.022       .   A
C571       O576 0.021       .   A
C572       C573 0.021       .   A
C572       C575 0.022       .   A
C573       C574 0.021       .   A
C573       H579 0.017       .   A
C574       H578 0.017       .   A
C575       C580 0.019       .   A
O576       H593 0.017       .   A
C580       C581 0.025       .   A
C581       C582 0.026       .   A
C581       N585 0.023       .   A
C581       H592 0.017       .   A
C582       C583 0.026       .   A
C582       H589 0.017       .   A
C582       H591 0.017       .   A
C583       N584 0.023       .   A
C583       C586 0.027       .   A
C583       H590 0.017       .   A
N584       N585 0.023       .   A
N584       H588 0.016       .   A
N585       H587 0.016       .   A
C586       C594 0.027       .   A
C586       N597 0.017       .   A
C586       H600 0.017       .   A
C594       N595 0.025       .   A
C594       H598 0.017       .   A
C594       H599 0.017       .   A
N595       N596 0.017       .   A
N596       N597 0.021       .   A
C537       C538 0.020       .   A
C537       C542 0.021       .   A
C538       C539 0.021       .   A
C538       H545 0.017       .   A
C539       C540 0.022       .   A
C539       O544 0.021       .   A
C540       C541 0.021       .   A
C540       C543 0.022       .   A
C541       C542 0.021       .   A
C541       H547 0.017       .   A
C542       H546 0.017       .   A
C543       C548 0.019       .   A
O544       H561 0.017       .   A
C548       C549 0.025       .   A
C549       C550 0.026       .   A
C549       N553 0.023       .   A
C549       H560 0.017       .   A
C550       C551 0.026       .   A
C550       H557 0.017       .   A
C550       H559 0.017       .   A
C551       N552 0.023       .   A
C551       C554 0.027       .   A
C551       H558 0.017       .   A
N552       N553 0.023       .   A
N552       H556 0.016       .   A
N553       H555 0.016       .   A
C554       C562 0.027       .   A
C554       N565 0.017       .   A
C554       H568 0.017       .   A
C562       N563 0.025       .   A
C562       H566 0.017       .   A
C562       H567 0.017       .   A
N563       N564 0.017       .   A
N564       N565 0.021       .   A
C505       C506 0.020       .   A
C505       C510 0.021       .   A
C506       C507 0.021       .   A
C506       H513 0.017       .   A
C507       C508 0.022       .   A
C507       O512 0.021       .   A
C508       C509 0.021       .   A
C508       C511 0.022       .   A
C509       C510 0.021       .   A
C509       H515 0.017       .   A
C510       H514 0.017       .   A
C511       C516 0.019       .   A
O512       H529 0.017       .   A
C516       C517 0.025       .   A
C517       C518 0.026       .   A
C517       N521 0.023       .   A
C517       H528 0.017       .   A
C518       C519 0.026       .   A
C518       H525 0.017       .   A
C518       H527 0.017       .   A
C519       N520 0.023       .   A
C519       C522 0.027       .   A
C519       H526 0.017       .   A
N520       N521 0.023       .   A
N520       H524 0.016       .   A
N521       H523 0.016       .   A
C522       C530 0.027       .   A
C522       N533 0.017       .   A
C522       H536 0.017       .   A
C530       N531 0.025       .   A
C530       H534 0.017       .   A
C530       H535 0.017       .   A
N531       N532 0.017       .   A
N532       N533 0.021       .   A
C473       C474 0.020       .   A
C473       C478 0.021       .   A
C474       C475 0.021       .   A
C474       H481 0.017       .   A
C475       C476 0.022       .   A
C475       O480 0.021       .   A
C476       C477 0.021       .   A
C476       C479 0.022       .   A
C477       C478 0.021       .   A
C477       H483 0.017       .   A
C478       H482 0.017       .   A
C479       C484 0.019       .   A
O480       H497 0.017       .   A
C484       C485 0.025       .   A
C485       C486 0.026       .   A
C485       N489 0.023       .   A
C485       H496 0.017       .   A
C486       C487 0.026       .   A
C486       H493 0.017       .   A
C486       H495 0.017       .   A
C487       N488 0.023       .   A
C487       C490 0.027       .   A
C487       H494 0.017       .   A
N488       N489 0.023       .   A
N488       H492 0.016       .   A
N489       H491 0.016       .   A
C490       C498 0.027       .   A
C490       N501 0.017       .   A
C490       H504 0.017       .   A
C498       N499 0.025       .   A
C498       H502 0.017       .   A
C498       H503 0.017       .   A
N499       N500 0.017       .   A
N500       N501 0.021       .   A
C441       C442 0.020       .   A
C441       C446 0.021       .   A
C442       C443 0.021       .   A
C442       H449 0.017       .   A
C443       C444 0.022       .   A
C443       O448 0.021       .   A
C444       C445 0.021       .   A
C444       C447 0.022       .   A
C445       C446 0.021       .   A
C445       H451 0.017       .   A
C446       H450 0.017       .   A
C447       C452 0.019       .   A
O448       H465 0.017       .   A
C452       C453 0.025       .   A
C453       C454 0.026       .   A
C453       N457 0.023       .   A
C453       H464 0.017       .   A
C454       C455 0.026       .   A
C454       H461 0.017       .   A
C454       H463 0.017       .   A
C455       N456 0.023       .   A
C455       C458 0.027       .   A
C455       H462 0.017       .   A
N456       N457 0.023       .   A
N456       H460 0.016       .   A
N457       H459 0.016       .   A
C458       C466 0.027       .   A
C458       N469 0.017       .   A
C458       H472 0.017       .   A
C466       N467 0.025       .   A
C466       H470 0.017       .   A
C466       H471 0.017       .   A
N467       N468 0.017       .   A
N468       N469 0.021       .   A
C409       C410 0.020       .   A
C409       C414 0.021       .   A
C410       C411 0.021       .   A
C410       H417 0.017       .   A
C411       C412 0.022       .   A
C411       O416 0.021       .   A
C412       C413 0.021       .   A
C412       C415 0.022       .   A
C413       C414 0.021       .   A
C413       H419 0.017       .   A
C414       H418 0.017       .   A
C415       C420 0.019       .   A
O416       H433 0.017       .   A
C420       C421 0.025       .   A
C421       C422 0.026       .   A
C421       N425 0.023       .   A
C421       H432 0.017       .   A
C422       C423 0.026       .   A
C422       H429 0.017       .   A
C422       H431 0.017       .   A
C423       N424 0.023       .   A
C423       C426 0.027       .   A
C423       H430 0.017       .   A
N424       N425 0.023       .   A
N424       H428 0.016       .   A
N425       H427 0.016       .   A
C426       C434 0.027       .   A
C426       N437 0.017       .   A
C426       H440 0.017       .   A
C434       N435 0.025       .   A
C434       H438 0.017       .   A
C434       H439 0.017       .   A
N435       N436 0.017       .   A
N436       N437 0.021       .   A
C377       C378 0.020       .   A
C377       C382 0.021       .   A
C378       C379 0.021       .   A
C378       H385 0.017       .   A
C379       C380 0.022       .   A
C379       O384 0.021       .   A
C380       C381 0.021       .   A
C380       C383 0.022       .   A
C381       C382 0.021       .   A
C381       H387 0.017       .   A
C382       H386 0.017       .   A
C383       C388 0.019       .   A
O384       H401 0.017       .   A
C388       C389 0.025       .   A
C389       C390 0.026       .   A
C389       N393 0.023       .   A
C389       H400 0.017       .   A
C390       C391 0.026       .   A
C390       H397 0.017       .   A
C390       H399 0.017       .   A
C391       N392 0.023       .   A
C391       C394 0.027       .   A
C391       H398 0.017       .   A
N392       N393 0.023       .   A
N392       H396 0.016       .   A
N393       H395 0.016       .   A
C394       C402 0.027       .   A
C394       N405 0.017       .   A
C394       H408 0.017       .   A
C402       N403 0.025       .   A
C402       H406 0.017       .   A
C402       H407 0.017       .   A
N403       N404 0.017       .   A
N404       N405 0.021       .   A
C345       C346 0.020       .   A
C345       C350 0.021       .   A
C346       C347 0.021       .   A
C346       H353 0.017       .   A
C347       C348 0.022       .   A
C347       O352 0.021       .   A
C348       C349 0.021       .   A
C348       C351 0.022       .   A
C349       C350 0.021       .   A
C349       H355 0.017       .   A
C350       H354 0.017       .   A
C351       C356 0.019       .   A
O352       H369 0.017       .   A
C356       C357 0.025       .   A
C357       C358 0.026       .   A
C357       N361 0.023       .   A
C357       H368 0.017       .   A
C358       C359 0.026       .   A
C358       H365 0.017       .   A
C358       H367 0.017       .   A
C359       N360 0.023       .   A
C359       C362 0.027       .   A
C359       H366 0.017       .   A
N360       N361 0.023       .   A
N360       H364 0.016       .   A
N361       H363 0.016       .   A
C362       C370 0.027       .   A
C362       N373 0.017       .   A
C362       H376 0.017       .   A
C370       N371 0.025       .   A
C370       H374 0.017       .   A
C370       H375 0.017       .   A
N371       N372 0.017       .   A
N372       N373 0.021       .   A
C313       C314 0.020       .   A
C313       C318 0.021       .   A
C314       C315 0.021       .   A
C314       H321 0.017       .   A
C315       C316 0.022       .   A
C315       O320 0.021       .   A
C316       C317 0.021       .   A
C316       C319 0.022       .   A
C317       C318 0.021       .   A
C317       H323 0.017       .   A
C318       H322 0.017       .   A
C319       C324 0.019       .   A
O320       H337 0.017       .   A
C324       C325 0.025       .   A
C325       C326 0.026       .   A
C325       N329 0.023       .   A
C325       H336 0.017       .   A
C326       C327 0.026       .   A
C326       H333 0.017       .   A
C326       H335 0.017       .   A
C327       N328 0.023       .   A
C327       C330 0.027       .   A
C327       H334 0.017       .   A
N328       N329 0.023       .   A
N328       H332 0.016       .   A
N329       H331 0.016       .   A
C330       C338 0.027       .   A
C330       N341 0.017       .   A
C330       H344 0.017       .   A
C338       N339 0.025       .   A
C338       H342 0.017       .   A
C338       H343 0.017       .   A
N339       N340 0.017       .   A
N340       N341 0.021       .   A
C281       C282 0.020       .   A
C281       C286 0.021       .   A
C282       C283 0.021       .   A
C282       H289 0.017       .   A
C283       C284 0.022       .   A
C283       O288 0.021       .   A
C284       C285 0.021       .   A
C284       C287 0.022       .   A
C285       C286 0.021       .   A
C285       H291 0.017       .   A
C286       H290 0.017       .   A
C287       C292 0.019       .   A
O288       H305 0.017       .   A
C292       C293 0.025       .   A
C293       C294 0.026       .   A
C293       N297 0.023       .   A
C293       H304 0.017       .   A
C294       C295 0.026       .   A
C294       H301 0.017       .   A
C294       H303 0.017       .   A
C295       N296 0.023       .   A
C295       C298 0.027       .   A
C295       H302 0.017       .   A
N296       N297 0.023       .   A
N296       H300 0.016       .   A
N297       H299 0.016       .   A
C298       C306 0.027       .   A
C298       N309 0.017       .   A
C298       H312 0.017       .   A
C306       N307 0.025       .   A
C306       H310 0.017       .   A
C306       H311 0.017       .   A
N307       N308 0.017       .   A
N308       N309 0.021       .   A
C249       C250 0.020       .   A
C249       C254 0.021       .   A
C250       C251 0.021       .   A
C250       H257 0.017       .   A
C251       C252 0.022       .   A
C251       O256 0.021       .   A
C252       C253 0.021       .   A
C252       C255 0.022       .   A
C253       C254 0.021       .   A
C253       H259 0.017       .   A
C254       H258 0.017       .   A
C255       C260 0.019       .   A
O256       H273 0.017       .   A
C260       C261 0.025       .   A
C261       C262 0.026       .   A
C261       N265 0.023       .   A
C261       H272 0.017       .   A
C262       C263 0.026       .   A
C262       H269 0.017       .   A
C262       H271 0.017       .   A
C263       N264 0.023       .   A
C263       C266 0.027       .   A
C263       H270 0.017       .   A
N264       N265 0.023       .   A
N264       H268 0.016       .   A
N265       H267 0.016       .   A
C266       C274 0.027       .   A
C266       N277 0.017       .   A
C266       H280 0.017       .   A
C274       N275 0.025       .   A
C274       H278 0.017       .   A
C274       H279 0.017       .   A
N275       N276 0.017       .   A
N276       N277 0.021       .   A
C217       C218 0.020       .   A
C217       C222 0.021       .   A
C218       C219 0.021       .   A
C218       H225 0.017       .   A
C219       C220 0.022       .   A
C219       O224 0.021       .   A
C220       C221 0.021       .   A
C220       C223 0.022       .   A
C221       C222 0.021       .   A
C221       H227 0.017       .   A
C222       H226 0.017       .   A
C223       C228 0.019       .   A
O224       H241 0.017       .   A
C228       C229 0.025       .   A
C229       C230 0.026       .   A
C229       N233 0.023       .   A
C229       H240 0.017       .   A
C230       C231 0.026       .   A
C230       H237 0.017       .   A
C230       H239 0.017       .   A
C231       N232 0.023       .   A
C231       C234 0.027       .   A
C231       H238 0.017       .   A
N232       N233 0.023       .   A
N232       H236 0.016       .   A
N233       H235 0.016       .   A
C234       C242 0.027       .   A
C234       N245 0.017       .   A
C234       H248 0.017       .   A
C242       N243 0.025       .   A
C242       H246 0.017       .   A
C242       H247 0.017       .   A
N243       N244 0.017       .   A
N244       N245 0.021       .   A
C185       C186 0.020       .   A
C185       C190 0.021       .   A
C186       C187 0.021       .   A
C186       H193 0.017       .   A
C187       C188 0.022       .   A
C187       O192 0.021       .   A
C188       C189 0.021       .   A
C188       C191 0.022       .   A
C189       C190 0.021       .   A
C189       H195 0.017       .   A
C190       H194 0.017       .   A
C191       C196 0.019       .   A
O192       H209 0.017       .   A
C196       C197 0.025       .   A
C197       C198 0.026       .   A
C197       N201 0.023       .   A
C197       H208 0.017       .   A
C198       C199 0.026       .   A
C198       H205 0.017       .   A
C198       H207 0.017       .   A
C199       N200 0.023       .   A
C199       C202 0.027       .   A
C199       H206 0.017       .   A
N200       N201 0.023       .   A
N200       H204 0.016       .   A
N201       H203 0.016       .   A
C202       C210 0.027       .   A
C202       N213 0.017       .   A
C202       H216 0.017       .   A
C210       N211 0.025       .   A
C210       H214 0.017       .   A
C210       H215 0.017       .   A
N211       N212 0.017       .   A
N212       N213 0.021       .   A
