data_pcu_v1-6c_Zn_1_Ch_1-6_fer_tobacco
_audit_creation_date              2021-02-03
_audit_creation_method            'tobacco_3.0'
_symmetry_space_group_name_H-M    'P1'
_symmetry_Int_Tables_number       1
_symmetry_cell_setting            triclinic
loop_
_symmetry_equiv_pos_as_xyz
  x,y,z
_cell_length_a                    40.03161195069167
_cell_length_b                    40.03161195069167
_cell_length_c                    40.03161195069167
_cell_angle_alpha                 90.0
_cell_angle_beta                  90.0
_cell_angle_gamma                 90.0
loop_
_atom_site_label
_atom_site_type_symbol
_atom_site_fract_x
_atom_site_fract_y
_atom_site_fract_z
_atom_site_charge
Zn1       Zn   -0.0280078654   -0.0280078654    0.0280078654          1.4972
Zn2       Zn    0.0280078654    0.0280078654    0.0280078654          1.4936
Zn3       Zn    0.0280078654   -0.0280078654   -0.0280078654          1.4911
Zn4       Zn   -0.0280078654    0.0280078654   -0.0280078654          1.4948
O5         O    0.0000000000    0.0000000000    0.0000000000         -2.2389
O6         O   -0.0205837327   -0.0205837327    0.0748558415         -1.1452
O7         O    0.0748558415    0.0205837327    0.0205837327         -1.1434
O8         O    0.0205837327   -0.0748558415   -0.0205837327         -1.1386
O9         O    0.0205837327    0.0205837327    0.0748558415         -1.1454
O10        O   -0.0205837327   -0.0748558415    0.0205837327         -1.1413
O11        O    0.0748558415   -0.0205837327   -0.0205837327         -1.1472
O12        O   -0.0205837327    0.0205837327   -0.0748558415         -1.1411
O13        O    0.0205837327    0.0748558415    0.0205837327         -1.1487
O14        O    0.0205837327   -0.0205837327   -0.0748558415         -1.1426
O15        O   -0.0205837327    0.0748558415   -0.0205837327         -1.1472
O16        O   -0.0748558415    0.0205837327   -0.0205837327         -1.1463
O17        O   -0.0748558415   -0.0205837327    0.0205837327         -1.1442
C18        C   -0.0000000000   -0.0000000000    0.0894992688          0.3737
C19        C    0.0894992688   -0.0000000000   -0.0000000000          0.3786
C20        C   -0.0000000000   -0.0894992688    0.0000000000          0.3682
C21        C    0.0000000000    0.0000000000   -0.0894992688          0.3719
C22        C    0.0000000000    0.0894992688   -0.0000000000          0.3833
C23        C   -0.0894992688    0.0000000000    0.0000000000          0.3738
Zn24      Zn    0.9719921346    0.0280078654    0.4719921346          1.4972
Zn25      Zn    1.0280078654   -0.0280078654    0.4719921346          1.4936
Zn26      Zn    1.0280078654    0.0280078654    0.5280078654          1.4911
Zn27      Zn    0.9719921346   -0.0280078654    0.5280078654          1.4948
O28        O    1.0000000000    0.0000000000    0.5000000000         -2.2389
O29        O    0.9794162673    0.0205837327    0.4251441585         -1.1452
O30        O    1.0748558415   -0.0205837327    0.4794162673         -1.1434
O31        O    1.0205837327    0.0748558415    0.5205837327         -1.1386
O32        O    1.0205837327   -0.0205837327    0.4251441585         -1.1454
O33        O    0.9794162673    0.0748558415    0.4794162673         -1.1413
O34        O    1.0748558415    0.0205837327    0.5205837327         -1.1472
O35        O    0.9794162673   -0.0205837327    0.5748558415         -1.1411
O36        O    1.0205837327   -0.0748558415    0.4794162673         -1.1487
O37        O    1.0205837327    0.0205837327    0.5748558415         -1.1426
O38        O    0.9794162673   -0.0748558415    0.5205837327         -1.1472
O39        O    0.9251441585   -0.0205837327    0.5205837327         -1.1463
O40        O    0.9251441585    0.0205837327    0.4794162673         -1.1442
C41        C    1.0000000000    0.0000000000    0.4105007312          0.3737
C42        C    1.0894992688    0.0000000000    0.5000000000          0.3786
C43        C    1.0000000000    0.0894992688    0.5000000000          0.3682
C44        C    1.0000000000    0.0000000000    0.5894992688          0.3719
C45        C    1.0000000000   -0.0894992688    0.5000000000          0.3833
C46        C    0.9105007312    0.0000000000    0.5000000000          0.3738
Zn47      Zn    1.0280078654    0.4719921346   -0.0280078654          1.4972
Zn48      Zn    0.9719921346    0.4719921346    0.0280078654          1.4936
Zn49      Zn    1.0280078654    0.5280078654    0.0280078654          1.4911
Zn50      Zn    0.9719921346    0.5280078654   -0.0280078654          1.4948
O51        O    1.0000000000    0.5000000000    0.0000000000         -2.2389
O52        O    1.0205837327    0.4251441585   -0.0205837327         -1.1452
O53        O    0.9794162673    0.4794162673    0.0748558415         -1.1434
O54        O    1.0748558415    0.5205837327    0.0205837327         -1.1386
O55        O    0.9794162673    0.4251441585    0.0205837327         -1.1454
O56        O    1.0748558415    0.4794162673   -0.0205837327         -1.1413
O57        O    1.0205837327    0.5205837327    0.0748558415         -1.1472
O58        O    0.9794162673    0.5748558415   -0.0205837327         -1.1411
O59        O    0.9251441585    0.4794162673    0.0205837327         -1.1487
O60        O    1.0205837327    0.5748558415    0.0205837327         -1.1426
O61        O    0.9251441585    0.5205837327   -0.0205837327         -1.1472
O62        O    0.9794162673    0.5205837327   -0.0748558415         -1.1463
O63        O    1.0205837327    0.4794162673   -0.0748558415         -1.1442
C64        C    1.0000000000    0.4105007312    0.0000000000          0.3737
C65        C    1.0000000000    0.5000000000    0.0894992688          0.3786
C66        C    1.0894992688    0.5000000000    0.0000000000          0.3682
C67        C    1.0000000000    0.5894992688    0.0000000000          0.3719
C68        C    0.9105007312    0.5000000000    0.0000000000          0.3833
C69        C    1.0000000000    0.5000000000   -0.0894992688          0.3738
Zn70      Zn    0.9719921346    0.4719921346    0.5280078654          1.4972
Zn71      Zn    1.0280078654    0.5280078654    0.5280078654          1.4936
Zn72      Zn    1.0280078654    0.4719921346    0.4719921346          1.4911
Zn73      Zn    0.9719921346    0.5280078654    0.4719921346          1.4948
O74        O    1.0000000000    0.5000000000    0.5000000000         -2.2389
O75        O    0.9794162673    0.4794162673    0.5748558415         -1.1452
O76        O    1.0748558415    0.5205837327    0.5205837327         -1.1434
O77        O    1.0205837327    0.4251441585    0.4794162673         -1.1386
O78        O    1.0205837327    0.5205837327    0.5748558415         -1.1454
O79        O    0.9794162673    0.4251441585    0.5205837327         -1.1413
O80        O    1.0748558415    0.4794162673    0.4794162673         -1.1472
O81        O    0.9794162673    0.5205837327    0.4251441585         -1.1411
O82        O    1.0205837327    0.5748558415    0.5205837327         -1.1487
O83        O    1.0205837327    0.4794162673    0.4251441585         -1.1426
O84        O    0.9794162673    0.5748558415    0.4794162673         -1.1472
O85        O    0.9251441585    0.5205837327    0.4794162673         -1.1463
O86        O    0.9251441585    0.4794162673    0.5205837327         -1.1442
C87        C    1.0000000000    0.5000000000    0.5894992688          0.3737
C88        C    1.0894992688    0.5000000000    0.5000000000          0.3786
C89        C    1.0000000000    0.4105007312    0.5000000000          0.3682
C90        C    1.0000000000    0.5000000000    0.4105007312          0.3719
C91        C    1.0000000000    0.5894992688    0.5000000000          0.3833
C92        C    0.9105007312    0.5000000000    0.5000000000          0.3738
Zn93      Zn    0.4719921346    0.9719921346   -0.0280078654          1.4972
Zn94      Zn    0.4719921346    1.0280078654    0.0280078654          1.4936
Zn95      Zn    0.5280078654    0.9719921346    0.0280078654          1.4911
Zn96      Zn    0.5280078654    1.0280078654   -0.0280078654          1.4948
O97        O    0.5000000000    1.0000000000    0.0000000000         -2.2389
O98        O    0.4251441585    0.9794162673   -0.0205837327         -1.1452
O99        O    0.4794162673    1.0205837327    0.0748558415         -1.1434
O100       O    0.5205837327    0.9251441585    0.0205837327         -1.1386
O101       O    0.4251441585    1.0205837327    0.0205837327         -1.1454
O102       O    0.4794162673    0.9251441585   -0.0205837327         -1.1413
O103       O    0.5205837327    0.9794162673    0.0748558415         -1.1472
O104       O    0.5748558415    1.0205837327   -0.0205837327         -1.1411
O105       O    0.4794162673    1.0748558415    0.0205837327         -1.1487
O106       O    0.5748558415    0.9794162673    0.0205837327         -1.1426
O107       O    0.5205837327    1.0748558415   -0.0205837327         -1.1472
O108       O    0.5205837327    1.0205837327   -0.0748558415         -1.1463
O109       O    0.4794162673    0.9794162673   -0.0748558415         -1.1442
C110       C    0.4105007312    1.0000000000    0.0000000000          0.3737
C111       C    0.5000000000    1.0000000000    0.0894992688          0.3786
C112       C    0.5000000000    0.9105007312    0.0000000000          0.3682
C113       C    0.5894992688    1.0000000000    0.0000000000          0.3719
C114       C    0.5000000000    1.0894992688    0.0000000000          0.3833
C115       C    0.5000000000    1.0000000000   -0.0894992688          0.3738
Zn116     Zn    0.4719921346    1.0280078654    0.5280078654          1.4972
Zn117     Zn    0.4719921346    0.9719921346    0.4719921346          1.4936
Zn118     Zn    0.5280078654    1.0280078654    0.4719921346          1.4911
Zn119     Zn    0.5280078654    0.9719921346    0.5280078654          1.4948
O120       O    0.5000000000    1.0000000000    0.5000000000         -2.2389
O121       O    0.4251441585    1.0205837327    0.5205837327         -1.1452
O122       O    0.4794162673    0.9794162673    0.4251441585         -1.1434
O123       O    0.5205837327    1.0748558415    0.4794162673         -1.1386
O124       O    0.4251441585    0.9794162673    0.4794162673         -1.1454
O125       O    0.4794162673    1.0748558415    0.5205837327         -1.1413
O126       O    0.5205837327    1.0205837327    0.4251441585         -1.1472
O127       O    0.5748558415    0.9794162673    0.5205837327         -1.1411
O128       O    0.4794162673    0.9251441585    0.4794162673         -1.1487
O129       O    0.5748558415    1.0205837327    0.4794162673         -1.1426
O130       O    0.5205837327    0.9251441585    0.5205837327         -1.1472
O131       O    0.5205837327    0.9794162673    0.5748558415         -1.1463
O132       O    0.4794162673    1.0205837327    0.5748558415         -1.1442
C133       C    0.4105007312    1.0000000000    0.5000000000          0.3737
C134       C    0.5000000000    1.0000000000    0.4105007312          0.3786
C135       C    0.5000000000    1.0894992688    0.5000000000          0.3682
C136       C    0.5894992688    1.0000000000    0.5000000000          0.3719
C137       C    0.5000000000    0.9105007312    0.5000000000          0.3833
C138       C    0.5000000000    1.0000000000    0.5894992688          0.3738
Zn139     Zn    0.4719921346    0.5280078654   -0.0280078654          1.4972
Zn140     Zn    0.4719921346    0.4719921346    0.0280078654          1.4936
Zn141     Zn    0.5280078654    0.4719921346   -0.0280078654          1.4911
Zn142     Zn    0.5280078654    0.5280078654    0.0280078654          1.4948
O143       O    0.5000000000    0.5000000000    0.0000000000         -2.2389
O144       O    0.4251441585    0.5205837327   -0.0205837327         -1.1452
O145       O    0.4794162673    0.4251441585    0.0205837327         -1.1434
O146       O    0.5205837327    0.4794162673   -0.0748558415         -1.1386
O147       O    0.4251441585    0.4794162673    0.0205837327         -1.1454
O148       O    0.4794162673    0.5205837327   -0.0748558415         -1.1413
O149       O    0.5205837327    0.4251441585   -0.0205837327         -1.1472
O150       O    0.5748558415    0.5205837327    0.0205837327         -1.1411
O151       O    0.4794162673    0.4794162673    0.0748558415         -1.1487
O152       O    0.5748558415    0.4794162673   -0.0205837327         -1.1426
O153       O    0.5205837327    0.5205837327    0.0748558415         -1.1472
O154       O    0.5205837327    0.5748558415    0.0205837327         -1.1463
O155       O    0.4794162673    0.5748558415   -0.0205837327         -1.1442
C156       C    0.4105007312    0.5000000000    0.0000000000          0.3737
C157       C    0.5000000000    0.4105007312    0.0000000000          0.3786
C158       C    0.5000000000    0.5000000000   -0.0894992688          0.3682
C159       C    0.5894992688    0.5000000000    0.0000000000          0.3719
C160       C    0.5000000000    0.5000000000    0.0894992688          0.3833
C161       C    0.5000000000    0.5894992688    0.0000000000          0.3738
Zn162     Zn    0.4719921346    0.5280078654    0.4719921346          1.4972
Zn163     Zn    0.4719921346    0.4719921346    0.5280078654          1.4936
Zn164     Zn    0.5280078654    0.4719921346    0.4719921346          1.4911
Zn165     Zn    0.5280078654    0.5280078654    0.5280078654          1.4948
O166       O    0.5000000000    0.5000000000    0.5000000000         -2.2389
O167       O    0.4251441585    0.5205837327    0.4794162673         -1.1452
O168       O    0.4794162673    0.4251441585    0.5205837327         -1.1434
O169       O    0.5205837327    0.4794162673    0.4251441585         -1.1386
O170       O    0.4251441585    0.4794162673    0.5205837327         -1.1454
O171       O    0.4794162673    0.5205837327    0.4251441585         -1.1413
O172       O    0.5205837327    0.4251441585    0.4794162673         -1.1496
O173       O    0.5748558415    0.5205837327    0.5205837327         -1.1411
O174       O    0.4794162673    0.4794162673    0.5748558415         -1.1487
O175       O    0.5748558415    0.4794162673    0.4794162673         -1.1426
O176       O    0.5205837327    0.5205837327    0.5748558415         -1.1472
O177       O    0.5205837327    0.5748558415    0.5205837327         -1.1463
O178       O    0.4794162673    0.5748558415    0.4794162673         -1.1442
C179       C    0.4105007312    0.5000000000    0.5000000000          0.3737
C180       C    0.5000000000    0.4105007312    0.5000000000          0.3786
C181       C    0.5000000000    0.5000000000    0.4105007312          0.3682
C182       C    0.5894992688    0.5000000000    0.5000000000          0.3719
C183       C    0.5000000000    0.5000000000    0.5894992688          0.3833
C184       C    0.5000000000    0.5894992688    0.5000000000          0.3738
C898       C    0.5000000000    0.5000000000   -0.1279688664         -0.3969
C899       C    0.4889148152    0.5307713420   -0.1349189665          0.5935
C900       C    0.4799595167    0.5397780292   -0.1655692155          0.5873
C901       C    0.4824140852    0.5180798154   -0.1910443812          0.5911
C902       C    0.4939136835    0.4874672889   -0.1842417932         -0.3989
C903       C    0.5026169635    0.4778720118   -0.1533276627          -0.393
C904       C    0.4702176953    0.5269888049   -0.2264598166          0.5821
F905       F    0.4676348871    0.5707201302   -0.1691370285          0.5763
H906       H    0.4860571247    0.5492081713   -0.1151472603          0.5897
N907       N    0.5139066647    0.4464468868   -0.1492333518          -0.383
H908       H    0.4957852115    0.4693494832   -0.2044539599          -0.396
O909       O    0.4860664907    0.5084036302   -0.2534073698          0.5985
C910       C    0.4722892184    0.5613000438   -0.2760176553          0.5876
C911       C    0.4761341059    0.5631065463   -0.2381343474          0.5887
C912       C    0.4995639203    0.5184494459   -0.3141654992         -0.3849
H913       H    0.4580397953    0.5806815467   -0.2278033774          0.5713
H914       H    0.4478508802    0.5706632594   -0.2837317791          0.5654
H915       H    0.4915593503    0.5766013920   -0.2878961873         -0.3936
H916       H    0.5014208957    0.5711182306   -0.2316546885         -0.3882
H917       H    0.4503753443    0.5142727060   -0.2906389515          0.5678
C918       C    0.4752708019    0.5238290612   -0.2845539718          0.5906
H919       H    0.4433999500    0.5218533740   -0.2276943168          0.5572
H920       H    0.5301619250    0.4412271138   -0.1303451260         -0.3691
H921       H    0.5213186496    0.4329607895   -0.1695293021         -0.3748
C922       C    0.4877207502    0.4909519445   -0.3385162811         -0.3945
N923       N    0.5000000000    0.5000000000   -0.3720311336         -0.3808
N924       N    0.5256757852    0.5030071302   -0.3620460314         -0.3576
N925       N    0.5206364031    0.5177380012   -0.3321269244         -0.3641
H926       H    0.4604202104    0.4899038600   -0.3390324317          0.5801
H927       H    0.4959912363    0.4657517303   -0.3307065671         -0.3875
H928       H    0.5006124720    0.5422361655   -0.3277502526         -0.3829
C867       C    0.5000000000    0.5000000000    0.3720311336         -0.3969
C868       C    0.5308210757    0.5109461457    0.3650810335          0.5935
C869       C    0.5398681024    0.5198606896    0.3344307845          0.5873
C870       C    0.5181590279    0.5175041090    0.3089556188          0.5911
C871       C    0.4874948951    0.5061428370    0.3157582068         -0.3989
C872       C    0.4778604223    0.4974829664    0.3466723373          -0.393
C873       C    0.5271229908    0.5296601523    0.2735401834          0.5821
F874       F    0.5708655311    0.5320454964    0.3308629715          0.5763
H875       H    0.5492706189    0.5137205685    0.3848527397          0.5897
N876       N    0.4463846469    0.4863352582    0.3507666482          -0.383
H877       H    0.4693688245    0.5043531262    0.2955460401          -0.396
O878       O    0.5084664515    0.5138954267    0.2465926302          0.5985
C879       C    0.5614245275    0.5274337423    0.2239823447          0.5876
C880       C    0.5632136526    0.5235807380    0.2618656526          0.5887
C881       C    0.5184512267    0.5003527799    0.1858345008         -0.3849
H882       H    0.5808701659    0.5415955168    0.2721966226          0.5713
H883       H    0.5708979816    0.5518295585    0.2162682209          0.5654
H884       H    0.5766387190    0.5080947243    0.2121038127         -0.3936
H885       H    0.5711110908    0.4982580348    0.2683453115         -0.3882
H886       H    0.5144966055    0.5495597117    0.2093610485          0.5678
C887       C    0.5239404655    0.5246213628    0.2154460282          0.5906
H888       H    0.5221086886    0.5565008098    0.2723056832          0.5572
H889       H    0.4410915380    0.4701037297    0.3696548740         -0.3691
H890       H    0.4328652235    0.4789842357    0.3304706979         -0.3748
C891       C    0.4910074749    0.5123199747    0.1614837189         -0.3945
N892       N    0.5000000000    0.5000000000    0.1279688664         -0.3808
N893       N    0.5028911787    0.4743108999    0.1379539686         -0.3576
N894       N    0.5176446514    0.4792837238    0.1678730756         -0.3641
H895       H    0.4900826573    0.5396249681    0.1609675683          0.5801
H896       H    0.4657701780    0.5041633467    0.1692934329         -0.3875
H897       H    0.5422329698    0.4991968468    0.1722497474         -0.3829
C836       C    0.5000000000    0.8720311336    0.5000000000         -0.3969
C837       C    0.5127651764    0.8650810335    0.4698867623          0.5935
C838       C    0.5123102910    0.8344307845    0.4571938169          0.5873
C839       C    0.4993736501    0.8089556188    0.4747858807          0.5911
C840       C    0.4870204942    0.8157582068    0.5050640425         -0.3989
C841       C    0.4868906285    0.8466723373    0.5180177895          -0.393
C842       C    0.4964736900    0.7735401834    0.4599631869          0.5821
F843       F    0.5242817938    0.8308629715    0.4261133853          0.5763
H844       H    0.5231907216    0.8848527397    0.4544144944          0.5897
N845       N    0.4738314816    0.8507666482    0.5487497683          -0.383
H846       H    0.4760878714    0.7955460401    0.5196323389          -0.396
O847       O    0.4954818700    0.7465926302    0.4843682955          0.5985
C848       C    0.5212993017    0.7239823447    0.4361883824          0.5876
C849       C    0.5253481907    0.7618656526    0.4374741149          0.5887
C850       C    0.5122113935    0.6858345008    0.4861633065         -0.3849
H851       H    0.5240058306    0.7721966226    0.4122851731          0.5713
H852       H    0.5097232042    0.7162682209    0.4127172055          0.5654
H853       H    0.5458352736    0.7121038127    0.4380472316         -0.3936
H854       H    0.5493485649    0.7683453115    0.4487697276         -0.3882
H855       H    0.4732737350    0.7093610485    0.4558182917          0.5678
C856       C    0.4980360900    0.7154460282    0.4657144279          0.5906
H857       H    0.4733033522    0.7723056832    0.4455167493          0.5572
H858       H    0.4822161766    0.8696548740    0.5636217691         -0.3691
H859       H    0.4701111359    0.8304706979    0.5636819941         -0.3748
C860       C    0.4848422382    0.6614837189    0.4983001348         -0.3945
N861       N    0.5000000000    0.6279688664    0.5000000000         -0.3808
N862       N    0.5208866170    0.6379539686    0.5152327939         -0.3576
N863       N    0.5271937627    0.6678730756    0.5009985449         -0.3641
H864       H    0.4640938199    0.6609675683    0.4805259656          0.5801
H865       H    0.4737953712    0.6692934329    0.5224127552         -0.3875
H866       H    0.5291376377    0.6722497474    0.4694178669         -0.3829
C805       C    0.5000000000    1.1279688664    0.5000000000         -0.3969
C806       C    0.5317187732    1.1349189665    0.5079797393          0.5935
C807       C    0.5415689585    1.1655692155    0.5159979457          0.5873
C808       C    0.5197342937    1.1910443812    0.5157067431          0.5911
C809       C    0.4881324664    1.1842417932    0.5072988864         -0.3989
C810       C    0.4777215776    1.1533276627    0.4995898126          -0.393
C811       C    0.5298086011    1.2264598166    0.5269597582          0.5821
F812       F    0.5735805343    1.1691370285    0.5251940929          0.5763
H813       H    0.5503480900    1.1151472603    0.5089954280          0.5897
N814       N    0.4453319657    1.1492333518    0.4914713840          -0.383
H815       H    0.4699183745    1.2044539599    0.5072328716          -0.396
O816       O    0.5097436650    1.2534073698    0.5130316797          0.5985
C817       C    0.5637454066    1.2760176553    0.5214966493          0.5876
C818       C    0.5651618065    1.2381343474    0.5174915998          0.5887
C819       C    0.5184017803    1.3141654992    0.4986047584         -0.3849
H820       H    0.5844441773    1.2278033774    0.5337542837          0.5713
H821       H    0.5754854316    1.2837317791    0.5448862623          0.5654
H822       H    0.5770608250    1.2878961873    0.5008044075         -0.3936
H823       H    0.5706269551    1.2316546885    0.4915350789         -0.3882
H824       H    0.5191224270    1.2906389515    0.5479650849          0.5678
C825       C    0.5261634346    1.2845539718    0.5222448215          0.5906
H826       H    0.5273573213    1.2276943168    0.5541545251          0.5572
H827       H    0.4385262807    1.1303451260    0.4758137287         -0.3691
H828       H    0.4311774525    1.1695293021    0.4854329989         -0.3748
C829       C    0.4922139522    1.3385162811    0.5131158203         -0.3945
N830       N    0.5000000000    1.3720311336    0.5000000000         -0.3808
N831       N    0.5004466849    1.3620460314    0.4741525775         -0.3576
N832       N    0.5156046069    1.3321269244    0.4777066363         -0.3641
H833       H    0.4938777472    1.3390324317    0.5403857624          0.5801
H834       H    0.4663179214    1.3307065671    0.5073845616         -0.3875
H835       H    0.5419673436    1.3277502526    0.4952030355         -0.3829
C774       C    0.5000000000    0.6279688664    0.0000000000         -0.3969
C775       C    0.5022103720    0.6349189665   -0.0326323623          0.5935
C776       C    0.5083485640    0.6655692155   -0.0437517320          0.5873
C777       C    0.5119459374    0.6910443812   -0.0222134802          0.5911
C778       C    0.5092934732    0.6842417932    0.0103799543         -0.3989
C779       C    0.5035592214    0.6533276627    0.0219960974          -0.393
C780       C    0.5212274838    0.7264598166   -0.0341288030          0.5821
F781       F    0.5117038616    0.6691370285   -0.0768886010          0.5763
H782       H    0.4998960954    0.6151472603   -0.0511452549          0.5897
N783       N    0.5013317001    0.6492333518    0.0553132700          -0.383
H784       H    0.5124684188    0.7044539599    0.0283153166          -0.396
O785       O    0.5110906598    0.7534073698   -0.0119063407          0.5985
C786       C    0.5098148480    0.7760176553   -0.0665526224          0.5876
C787       C    0.5056217215    0.7381343474   -0.0672340191          0.5887
C788       C    0.4953537158    0.8141654992   -0.0178601305         -0.3849
H789       H    0.5181951216    0.7278033774   -0.0891016740          0.5713
H790       H    0.5307431453    0.7837317791   -0.0822659464          0.5654
H791       H    0.4870840635    0.7878961873   -0.0759749722         -0.3936
H792       H    0.4791070104    0.7316546885   -0.0679948870         -0.3882
H793       H    0.5437986725    0.7906389515   -0.0273494585          0.5678
C794       C    0.5172361386    0.7845539718   -0.0297030793          0.5906
H795       H    0.5484245893    0.7276943168   -0.0365539980          0.5572
H796       H    0.4871343374    0.6303451260    0.0647955909         -0.3691
H797       H    0.4979074062    0.6695293021    0.0703161547         -0.3748
C798       C    0.5142916294    0.8385162811    0.0053288473         -0.3945
N799       N    0.5000000000    0.8720311336    0.0000000000         -0.3808
N800       N    0.4744853275    0.8620460314    0.0041581567         -0.3576
N801       N    0.4752864289    0.8321269244   -0.0113902249         -0.3641
H802       H    0.5408307251    0.8390324317   -0.0011591687          0.5801
H803       H    0.5132581353    0.8307065671    0.0318313684         -0.3875
H804       H    0.4878144197    0.8277502526   -0.0404447825         -0.3829
C743       C    0.5000000000    1.1279688664    0.0000000000         -0.3969
C744       C    0.5144305466    1.1349189665   -0.0293515951          0.5935
C745       C    0.5243297714    1.1655692155   -0.0373091785          0.5873
C746       C    0.5194831426    1.1910443812   -0.0160172181          0.5911
C747       C    0.5046583599    1.1842417932    0.0131305666         -0.3989
C748       C    0.4949442993    1.1533276627    0.0217010656          -0.393
C749       C    0.5325926131    1.2264598166   -0.0235181385          0.5821
F750       F    0.5400110557    1.1691370285   -0.0666929739          0.5763
H751       H    0.5193159889    1.1151472603   -0.0473575809          0.5897
N752       N    0.4802379678    1.1492333518    0.0516797189          -0.383
H753       H    0.5007883851    1.2044539599    0.0309289035          -0.396
O754       O    0.5147798019    1.2534073698   -0.0068059636          0.5985
C755       C    0.5343403857    1.2760176553   -0.0578473915          0.5876
C756       C    0.5307196470    1.2381343474   -0.0600692964          0.5887
C757       C    0.5024801798    1.3141654992   -0.0182871793         -0.3849
H758       H    0.5506520427    1.2278033774   -0.0755284140          0.5713
H759       H    0.5596666276    1.2837317791   -0.0644416052          0.5654
H760       H    0.5168867477    1.2878961873   -0.0751921244         -0.3936
H761       H    0.5064777722    1.2316546885   -0.0708368558         -0.3882
H762       H    0.5509017469    1.2906389515   -0.0086792137          0.5678
C763       C    0.5272201553    1.2845539718   -0.0209384942          0.5906
H764       H    0.5586750860    1.2276943168   -0.0154392324          0.5572
H765       H    0.4635039659    1.1303451260    0.0550639027         -0.3691
H766       H    0.4713755815    1.1695293021    0.0642602772         -0.3748
C767       C    0.5111996541    1.3385162811    0.0103544692         -0.3945
N768       N    0.5000000000    1.3720311336    0.0000000000         -0.3808
N769       N    0.4748163230    1.3620460314   -0.0058370534         -0.3576
N770       N    0.4814588484    1.3321269244   -0.0199179196         -0.3641
H771       H    0.5382153937    1.3390324317    0.0144248213          0.5801
H772       H    0.5001844953    1.3307065671    0.0344815911         -0.3875
H773       H    0.5040770129    1.3277502526   -0.0420433914         -0.3829
C712       C    0.5000000000    1.0000000000   -0.1279688664         -0.3969
C713       C    0.5110851848    0.9692286580   -0.1349189665          0.5935
C714       C    0.5200404833    0.9602219708   -0.1655692155          0.5873
C715       C    0.5175859148    0.9819201846   -0.1910443812          0.5911
C716       C    0.5060863165    1.0125327111   -0.1842417932         -0.3989
C717       C    0.4973830365    1.0221279882   -0.1533276627          -0.393
C718       C    0.5297823047    0.9730111951   -0.2264598166          0.5821
F719       F    0.5323651129    0.9292798698   -0.1691370285          0.5763
H720       H    0.5139428753    0.9507918287   -0.1151472603          0.5897
N721       N    0.4860933353    1.0535531132   -0.1492333518          -0.383
H722       H    0.5042147885    1.0306505168   -0.2044539599          -0.396
O723       O    0.5139335093    0.9915963698   -0.2534073698          0.5985
C724       C    0.5277107816    0.9386999562   -0.2760176553          0.5876
C725       C    0.5238658941    0.9368934537   -0.2381343474          0.5887
C726       C    0.5004360797    0.9815505541   -0.3141654992         -0.3849
H727       H    0.5419602047    0.9193184533   -0.2278033774          0.5713
H728       H    0.5521491198    0.9293367406   -0.2837317791          0.5654
H729       H    0.5084406497    0.9233986080   -0.2878961873         -0.3936
H730       H    0.4985791043    0.9288817694   -0.2316546885         -0.3882
H731       H    0.5496246557    0.9857272940   -0.2906389515          0.5678
C732       C    0.5247291981    0.9761709388   -0.2845539718          0.5906
H733       H    0.5566000500    0.9781466260   -0.2276943168          0.5572
H734       H    0.4698380750    1.0587728862   -0.1303451260         -0.3691
H735       H    0.4786813504    1.0670392105   -0.1695293021         -0.3748
C736       C    0.5122792498    1.0090480555   -0.3385162811         -0.3945
N737       N    0.5000000000    1.0000000000   -0.3720311336         -0.3808
N738       N    0.4743242148    0.9969928698   -0.3620460314         -0.3576
N739       N    0.4793635969    0.9822619988   -0.3321269244         -0.3641
H740       H    0.5395797896    1.0100961400   -0.3390324317          0.5801
H741       H    0.5040087637    1.0342482697   -0.3307065671         -0.3875
H742       H    0.4993875280    0.9577638345   -0.3277502526         -0.3829
C681       C    0.5000000000    1.0000000000    0.1279688664         -0.3969
C682       C    0.4919215730    0.9683062178    0.1349189665          0.5935
C683       C    0.4838727462    0.9584810373    0.1655692155          0.5873
C684       C    0.4842319090    0.9803146900    0.1910443812          0.5911
C685       C    0.4927380873    1.0118901943    0.1842417932         -0.3989
C686       C    0.5004795282    1.0222770378    0.1533276627          -0.393
C687       C    0.4729475915    0.9702754570    0.2264598166          0.5821
F688       F    0.4745770057    0.9264982401    0.1691370285          0.5763
H689       H    0.4908479045    0.9496801526    0.1151472603          0.5897
N690       N    0.5086987319    1.0546412237    0.1492333518          -0.383
H691       H    0.4928607941    1.0301039925    0.2044539599          -0.396
O692       O    0.4869380558    0.9902969440    0.2534073698          0.5985
C693       C    0.4783050438    0.9363218117    0.2760176553          0.5876
C694       C    0.4823056654    0.9348929527    0.2381343474          0.5887
C695       C    0.5013379583    0.9815939660    0.3141654992         -0.3849
H696       H    0.4659830427    0.9156612937    0.2278033774          0.5713
H697       H    0.4548790027    0.9246546450    0.2837317791          0.5654
H698       H    0.4989557404    0.9229420521    0.2878961873         -0.3936
H699       H    0.5082450499    0.9293470395    0.2316546885         -0.3882
H700       H    0.4519756278    0.9810269595    0.2906389515          0.5678
C701       C    0.4776738511    0.9739059304    0.2845539718          0.5906
H702       H    0.4457605861    0.9728113701    0.2276943168          0.5572
H703       H    0.5243774944    1.0613981404    0.1303451260         -0.3691
H704       H    0.5147811444    1.0687768735    0.1695293021         -0.3748
C705       C    0.4869084777    1.0078268338    0.3385162811         -0.3945
N706       N    0.5000000000    1.0000000000    0.3720311336         -0.3808
N707       N    0.5258459070    0.9994728657    0.3620460314         -0.3576
N708       N    0.5222446855    0.9843260794    0.3321269244         -0.3641
H709       H    0.4596334891    1.0062479260    0.3390324317          0.5801
H710       H    0.4927203114    1.0337049002    0.3307065671         -0.3875
H711       H    0.5046663156    0.9580179289    0.3277502526         -0.3829
C650       C    0.8720311336    0.5000000000    0.5000000000         -0.3969
C651       C    0.8650810335    0.4715338934    0.5161070664          0.5935
C652       C    0.8344307845    0.4588715674    0.5170986726          0.5873
C653       C    0.8089556188    0.4748782378    0.5022452593          0.5911
C654       C    0.8157582068    0.5035550566    0.4865287837         -0.3989
C655       C    0.8466723373    0.5164099897    0.4849265599          -0.393
C656       C    0.7735401834    0.4598219084    0.5010498661          0.5821
F657       F    0.8308629715    0.4293542794    0.5325272117          0.5763
H658       H    0.8848527397    0.4573476843    0.5282245966          0.5897
N659       N    0.8507666482    0.5454573903    0.4684570622          -0.383
H660       H    0.7955460401    0.5167854904    0.4740102725          -0.396
O661       O    0.7465926302    0.4839558780    0.4972889427          0.5985
C662       C    0.7239823447    0.4390247172    0.5284182632          0.5876
C663       C    0.7618656526    0.4407625789    0.5322946594          0.5887
C664       C    0.6858345008    0.4876418541    0.5137057815         -0.3849
H665       H    0.7721966226    0.4155844007    0.5338256906          0.5713
H666       H    0.7162682209    0.4143892988    0.5195865965          0.5654
H667       H    0.7121038127    0.4436619273    0.5525836418         -0.3936
H668       H    0.7683453115    0.4547144140    0.5548546932         -0.3882
H669       H    0.7093610485    0.4530654265    0.4784718232          0.5678
C670       C    0.7154460282    0.4657135233    0.5019480534          0.5906
H671       H    0.7723056832    0.4428340893    0.4796728195          0.5572
H672       H    0.8696548740    0.5611864735    0.4750959975         -0.3691
H673       H    0.8304706979    0.5598696285    0.4630626457         -0.3748
C674       C    0.6614837189    0.4965873053    0.4851339044         -0.3945
N675       N    0.6279688664    0.5000000000    0.5000000000         -0.3808
N676       N    0.6379539686    0.5175093510    0.5190187120         -0.3576
N677       N    0.6678730756    0.5040847520    0.5269037660         -0.3641
H678       H    0.6609675683    0.4765687846    0.4665415193          0.5801
H679       H    0.6692934329    0.5192871464    0.4714164357         -0.3875
H680       H    0.6722497474    0.4729300436    0.5324266289         -0.3829
C619       C    1.1279688664    0.5000000000    0.5000000000         -0.3969
C620       C    1.1349189665    0.5161070664    0.4715338934          0.5935
C621       C    1.1655692155    0.5170986726    0.4588715674          0.5873
C622       C    1.1910443812    0.5022452593    0.4748782378          0.5911
C623       C    1.1842417932    0.4865287837    0.5035550566         -0.3989
C624       C    1.1533276627    0.4849265599    0.5164099897          -0.393
C625       C    1.2264598166    0.5010498661    0.4598219084          0.5821
F626       F    1.1691370285    0.5325272117    0.4293542794          0.5763
H627       H    1.1151472603    0.5282245966    0.4573476843          0.5897
N628       N    1.1492333518    0.4684570622    0.5454573903          -0.383
H629       H    1.2044539599    0.4740102725    0.5167854904          -0.396
O630       O    1.2534073698    0.4972889427    0.4839558780          0.5985
C631       C    1.2760176553    0.5284182632    0.4390247172          0.5876
C632       C    1.2381343474    0.5322946594    0.4407625789          0.5887
C633       C    1.3141654992    0.5137057815    0.4876418541         -0.3849
H634       H    1.2278033774    0.5338256906    0.4155844007          0.5713
H635       H    1.2837317791    0.5195865965    0.4143892988          0.5654
H636       H    1.2878961873    0.5525836418    0.4436619273         -0.3936
H637       H    1.2316546885    0.5548546932    0.4547144140         -0.3882
H638       H    1.2906389515    0.4784718232    0.4530654265          0.5678
C639       C    1.2845539718    0.5019480534    0.4657135233          0.5906
H640       H    1.2276943168    0.4796728195    0.4428340893          0.5572
H641       H    1.1303451260    0.4750959975    0.5611864735         -0.3691
H642       H    1.1695293021    0.4630626457    0.5598696285         -0.3748
C643       C    1.3385162811    0.4851339044    0.4965873053         -0.3945
N644       N    1.3720311336    0.5000000000    0.5000000000         -0.3808
N645       N    1.3620460314    0.5190187120    0.5175093510         -0.3576
N646       N    1.3321269244    0.5269037660    0.5040847520         -0.3641
H647       H    1.3390324317    0.4665415193    0.4765687846          0.5801
H648       H    1.3307065671    0.4714164357    0.5192871464         -0.3875
H649       H    1.3277502526    0.5324266289    0.4729300436         -0.3829
C588       C    0.8720311336    0.5000000000    0.0000000000         -0.3969
C589       C    0.8650810335    0.4733836159    0.0190085483          0.5935
C590       C    0.8344307845    0.4608955402    0.0213249573          0.5873
C591       C    0.8089556188    0.4752531462    0.0048720992          0.5911
C592       C    0.8157582068    0.5021201115   -0.0137701570         -0.3989
C593       C    0.8466723373    0.5147355774   -0.0167140395          -0.393
C594       C    0.7735401834    0.4601545518    0.0052651231          0.5821
F595       F    0.8308629715    0.4331625066    0.0397691692          0.5763
H596       H    0.8848527397    0.4605489679    0.0325494079          0.5897
N597       N    0.8507666482    0.5418919621   -0.0361440836          -0.383
H598       H    0.7955460401    0.5139621468   -0.0276093658          -0.396
O599       O    0.7465926302    0.4837598454   -0.0010104762          0.5985
C600       C    0.7239823447    0.4423477466    0.0346669939          0.5876
C601       C    0.7618656526    0.4444832409    0.0383393603          0.5887
C602       C    0.6858345008    0.4891501587    0.0149282672         -0.3849
H603       H    0.7721966226    0.4196052472    0.0425071110          0.5713
H604       H    0.7162682209    0.4169208152    0.0284723721          0.5654
H605       H    0.7121038127    0.4494980830    0.0582114610         -0.3936
H606       H    0.7683453115    0.4607279993    0.0593087821         -0.3882
H607       H    0.7093610485    0.4510634354   -0.0164781442          0.5678
C608       C    0.7154460282    0.4661079251    0.0055393731          0.5906
H609       H    0.7723056832    0.4410148938   -0.0142089009          0.5572
H610       H    0.8696548740    0.5582314798   -0.0311943686         -0.3691
H611       H    0.8304706979    0.5556577113   -0.0430227815         -0.3748
C612       C    0.6614837189    0.4950443752   -0.0144252926         -0.3945
N613       N    0.6279688664    0.5000000000    0.0000000000         -0.3808
N614       N    0.6379539686    0.5194105396    0.0170739489         -0.3576
N615       N    0.6678730756    0.5068886276    0.0263257408         -0.3641
H616       H    0.6609675683    0.4731833410   -0.0308116632          0.5801
H617       H    0.6692934329    0.5161774529   -0.0304516697         -0.3875
H618       H    0.6722497474    0.4764865554    0.0350911203         -0.3829
C557       C    1.1279688664    0.5000000000    0.0000000000         -0.3969
C558       C    1.1349189665    0.4833799138    0.0281696565          0.5935
C559       C    1.1655692155    0.4821590927    0.0408119419          0.5873
C560       C    1.1910443812    0.4973000291    0.0250769672          0.5911
C561       C    1.1842417932    0.5135334056   -0.0033104425         -0.3989
C562       C    1.1533276627    0.5153682333   -0.0161342420          -0.393
C563       C    1.2264598166    0.4982224812    0.0401524805          0.5821
F564       F    1.1691370285    0.4661983804    0.0700448988          0.5763
H565       H    1.1151472603    0.4710073892    0.0421340291          0.5897
N566       N    1.1492333518    0.5323612214   -0.0448785318          -0.383
H567       H    1.2044539599    0.5262895316   -0.0163119329          -0.396
O568       O    1.2534073698    0.5024199736    0.0160906001          0.5985
C569       C    1.2760176553    0.4704818343    0.0604504813          0.5876
C570       C    1.2381343474    0.4666375555    0.0586426840          0.5887
C571       C    1.3141654992    0.4860726000    0.0121078382         -0.3849
H572       H    1.2278033774    0.4646506735    0.0837889961          0.5713
H573       H    1.2837317791    0.4788657820    0.0852418427          0.5654
H574       H    1.2878961873    0.4464044240    0.0553762769         -0.3936
H575       H    1.2316546885    0.4443339607    0.0442844639         -0.3882
H576       H    1.2906389515    0.5206744257    0.0473168544          0.5678
C577       C    1.2845539718    0.4974311677    0.0342455617          0.5906
H578       H    1.2276943168    0.5192882861    0.0575247567          0.5572
H579       H    1.1303451260    0.5260083073   -0.0607252981         -0.3691
H580       H    1.1695293021    0.5380158300   -0.0591906854         -0.3748
C581       C    1.3385162811    0.5148018354    0.0036814336         -0.3945
N582       N    1.3720311336    0.5000000000    0.0000000000         -0.3808
N583       N    1.3620460314    0.4813015902   -0.0178510014         -0.3576
N584       N    1.3321269244    0.4731746438   -0.0045714427         -0.3641
H585       H    1.3390324317    0.5330285346    0.0240334701          0.5801
H586       H    1.3307065671    0.5289282602   -0.0187661911         -0.3875
H587       H    1.3277502526    0.4670883205    0.0264781070         -0.3829
C526       C    1.0000000000    0.5000000000   -0.3720311336         -0.3969
C527       C    0.9691789243    0.5109461457   -0.3650810335          0.5935
C528       C    0.9601318976    0.5198606896   -0.3344307845          0.5873
C529       C    0.9818409721    0.5175041090   -0.3089556188          0.5911
C530       C    1.0125051049    0.5061428370   -0.3157582068         -0.3989
C531       C    1.0221395777    0.4974829664   -0.3466723373          -0.393
C532       C    0.9728770092    0.5296601523   -0.2735401834          0.5821
F533       F    0.9291344689    0.5320454964   -0.3308629715          0.5763
H534       H    0.9507293811    0.5137205685   -0.3848527397          0.5897
N535       N    1.0536153531    0.4863352582   -0.3507666482          -0.383
H536       H    1.0306311755    0.5043531262   -0.2955460401          -0.396
O537       O    0.9915335485    0.5138954267   -0.2465926302          0.5985
C538       C    0.9385754725    0.5274337423   -0.2239823447          0.5876
C539       C    0.9367863474    0.5235807380   -0.2618656526          0.5887
C540       C    0.9815487733    0.5003527799   -0.1858345008         -0.3849
H541       H    0.9191298341    0.5415955168   -0.2721966226          0.5713
H542       H    0.9291020184    0.5518295585   -0.2162682209          0.5654
H543       H    0.9233612810    0.5080947243   -0.2121038127         -0.3936
H544       H    0.9288889092    0.4982580348   -0.2683453115         -0.3882
H545       H    0.9855033945    0.5495597117   -0.2093610485          0.5678
C546       C    0.9760595345    0.5246213628   -0.2154460282          0.5906
H547       H    0.9778913114    0.5565008098   -0.2723056832          0.5572
H548       H    1.0589084620    0.4701037297   -0.3696548740         -0.3691
H549       H    1.0671347765    0.4789842357   -0.3304706979         -0.3748
C550       C    1.0089925251    0.5123199747   -0.1614837189         -0.3945
N551       N    1.0000000000    0.5000000000   -0.1279688664         -0.3808
N552       N    0.9971088213    0.4743108999   -0.1379539686         -0.3576
N553       N    0.9823553486    0.4792837238   -0.1678730756         -0.3641
H554       H    1.0099173427    0.5396249681   -0.1609675683          0.5801
H555       H    1.0342298220    0.5041633467   -0.1692934329         -0.3875
H556       H    0.9577670302    0.4991968468   -0.1722497474         -0.3829
C495       C    1.0000000000    0.5000000000    0.3720311336         -0.3969
C496       C    1.0308210757    0.5109461457    0.3650810335          0.5935
C497       C    1.0398681024    0.5198606896    0.3344307845          0.5873
C498       C    1.0181590279    0.5175041090    0.3089556188          0.5911
C499       C    0.9874948951    0.5061428370    0.3157582068         -0.3989
C500       C    0.9778604223    0.4974829664    0.3466723373          -0.393
C501       C    1.0271229908    0.5296601523    0.2735401834          0.5821
F502       F    1.0708655311    0.5320454964    0.3308629715          0.5763
H503       H    1.0492706189    0.5137205685    0.3848527397          0.5897
N504       N    0.9463846469    0.4863352582    0.3507666482          -0.383
H505       H    0.9693688245    0.5043531262    0.2955460401          -0.396
O506       O    1.0084664515    0.5138954267    0.2465926302          0.5985
C507       C    1.0614245275    0.5274337423    0.2239823447          0.5876
C508       C    1.0632136526    0.5235807380    0.2618656526          0.5887
C509       C    1.0184512267    0.5003527799    0.1858345008         -0.3849
H510       H    1.0808701659    0.5415955168    0.2721966226          0.5713
H511       H    1.0708979816    0.5518295585    0.2162682209          0.5654
H512       H    1.0766387190    0.5080947243    0.2121038127         -0.3936
H513       H    1.0711110908    0.4982580348    0.2683453115         -0.3882
H514       H    1.0144966055    0.5495597117    0.2093610485          0.5678
C515       C    1.0239404655    0.5246213628    0.2154460282          0.5906
H516       H    1.0221086886    0.5565008098    0.2723056832          0.5572
H517       H    0.9410915380    0.4701037297    0.3696548740         -0.3691
H518       H    0.9328652235    0.4789842357    0.3304706979         -0.3748
C519       C    0.9910074749    0.5123199747    0.1614837189         -0.3945
N520       N    1.0000000000    0.5000000000    0.1279688664         -0.3808
N521       N    1.0028911787    0.4743108999    0.1379539686         -0.3576
N522       N    1.0176446514    0.4792837238    0.1678730756         -0.3641
H523       H    0.9900826573    0.5396249681    0.1609675683          0.5801
H524       H    0.9657701780    0.5041633467    0.1692934329         -0.3875
H525       H    1.0422329698    0.4991968468    0.1722497474         -0.3829
C464       C    1.0000000000   -0.3720311336    0.5000000000         -0.3969
C465       C    0.9691789243   -0.3650810335    0.4890538543          0.5935
C466       C    0.9601318976   -0.3344307845    0.4801393104          0.5873
C467       C    0.9818409721   -0.3089556188    0.4824958910          0.5911
C468       C    1.0125051049   -0.3157582068    0.4938571630         -0.3989
C469       C    1.0221395777   -0.3466723373    0.5025170336          -0.393
C470       C    0.9728770092   -0.2735401834    0.4703398477          0.5821
F471       F    0.9291344689   -0.3308629715    0.4679545036          0.5763
H472       H    0.9507293811   -0.3848527397    0.4862794315          0.5897
N473       N    1.0536153531   -0.3507666482    0.5136647418          -0.383
H474       H    1.0306311755   -0.2955460401    0.4956468738          -0.396
O475       O    0.9915335485   -0.2465926302    0.4861045733          0.5985
C476       C    0.9385754725   -0.2239823447    0.4725662577          0.5876
C477       C    0.9367863474   -0.2618656526    0.4764192620          0.5887
C478       C    0.9815487733   -0.1858345008    0.4996472201         -0.3849
H479       H    0.9191298341   -0.2721966226    0.4584044832          0.5713
H480       H    0.9291020184   -0.2162682209    0.4481704415          0.5654
H481       H    0.9233612810   -0.2121038127    0.4919052757         -0.3936
H482       H    0.9288889092   -0.2683453115    0.5017419652         -0.3882
H483       H    0.9855033945   -0.2093610485    0.4504402883          0.5678
C484       C    0.9760595345   -0.2154460282    0.4753786372          0.5906
H485       H    0.9778913114   -0.2723056832    0.4434991902          0.5572
H486       H    1.0589084620   -0.3696548740    0.5298962703         -0.3691
H487       H    1.0671347765   -0.3304706979    0.5210157643         -0.3748
C488       C    1.0089925251   -0.1614837189    0.4876800253         -0.3945
N489       N    1.0000000000   -0.1279688664    0.5000000000         -0.3808
N490       N    0.9971088213   -0.1379539686    0.5256891001         -0.3576
N491       N    0.9823553486   -0.1678730756    0.5207162762         -0.3641
H492       H    1.0099173427   -0.1609675683    0.4603750319          0.5801
H493       H    1.0342298220   -0.1692934329    0.4958366533         -0.3875
H494       H    0.9577670302   -0.1722497474    0.5008031532         -0.3829
C433       C    1.0000000000    0.1279688664    0.5000000000         -0.3969
C434       C    1.0059276020    0.1349189665    0.5321655149          0.5935
C435       C    1.0027296344    0.1655692155    0.5444574141          0.5873
C436       C    0.9939180029    0.1910443812    0.5244776109          0.5911
C437       C    0.9884283896    0.1842417932    0.4922404943         -0.3989
C438       C    0.9911121197    0.1533276627    0.4795671357          -0.393
C439       C    0.9878711239    0.2264598166    0.5383180327          0.5821
F440       F    1.0076726219    0.1691370285    0.5773948849          0.5763
H441       H    1.0127478737    0.1151472603    0.5495311983          0.5897
N442       N    0.9850317945    0.1492333518    0.4467338373          -0.383
H443       H    0.9809169894    0.2044539599    0.4756472316          -0.396
O444       O    0.9921979702    0.2534073698    0.5142790761          0.5985
C445       C    1.0069470902    0.2760176553    0.5669127845          0.5876
C446       C    1.0111784910    0.2381343474    0.5665361437          0.5887
C447       C    1.0089184417    0.3141654992    0.5161565348         -0.3849
H448       H    1.0044030021    0.2278033774    0.5908338281          0.5713
H449       H    0.9905543304    0.2837317791    0.5873132650          0.5654
H450       H    1.0313019075    0.2878961873    0.5704216473         -0.3936
H451       H    1.0370579107    0.2316546885    0.5607168257         -0.3882
H452       H    0.9643245084    0.2906389515    0.5373306294          0.5678
C453       C    0.9906441215    0.2845539718    0.5330427743          0.5906
H454       H    0.9621183517    0.2276943168    0.5473932098          0.5572
H455       H    0.9964434572    0.1303451260    0.4340352755         -0.3691
H456       H    0.9846398312    0.1695293021    0.4313501218         -0.3748
C457       C    0.9848344933    0.3385162811    0.4983706783         -0.3945
N458       N    1.0000000000    0.3720311336    0.5000000000         -0.3808
N459       N    1.0236940620    0.3620460314    0.4896617118         -0.3576
N460       N    1.0267626426    0.3321269244    0.5049253203         -0.3641
H461       H    0.9607239499    0.3390324317    0.5112197893          0.5801
H462       H    0.9792823491    0.3307065671    0.4724356551         -0.3875
H463       H    1.0218083297    0.3277502526    0.5361754828         -0.3829
C402       C    0.6279688664   -0.0000000000    0.5000000000         -0.3969
C403       C    0.6349189665    0.0154577365    0.4711761350          0.5935
C404       C    0.6655692155    0.0161620928    0.4584945867          0.5873
C405       C    0.6910443812    0.0016752908    0.4748338019          0.5911
C406       C    0.6842417932   -0.0133871793    0.5038594722         -0.3989
C407       C    0.6533276627   -0.0146976309    0.5167474178          -0.393
C408       C    0.7264598166    0.0001389488    0.4598084343          0.5821
F409       F    0.6691370285    0.0309176509    0.4286351893          0.5763
H410       H    0.6151472603    0.0272506194    0.4567189229          0.5897
N411       N    0.6492333518   -0.0305045304    0.5461606422          -0.383
H412       H    0.7044539599   -0.0256026032    0.5173702428          -0.396
O413       O    0.7534073698   -0.0030740054    0.4840214464          0.5985
C414       C    0.7760176553    0.0270289411    0.4383962734          0.5876
C415       C    0.7381343474    0.0309437306    0.4400458290          0.5887
C416       C    0.8141654992    0.0134221599    0.4873343834         -0.3849
H417       H    0.7278033774    0.0319036981    0.4148394176          0.5713
H418       H    0.7837317791    0.0176411745    0.4139673557          0.5654
H419       H    0.7878961873    0.0512932155    0.4424845772         -0.3936
H420       H    0.7316546885    0.0538141912    0.4534827505         -0.3882
H421       H    0.7906389515   -0.0225864316    0.4535654256          0.5678
C422       C    0.7845539718    0.0011704404    0.4656781780          0.5906
H423       H    0.7276943168   -0.0216176399    0.4433094958          0.5572
H424       H    0.6303451260   -0.0235107965    0.5617352114         -0.3691
H425       H    0.6695293021   -0.0355709037    0.5606914440         -0.3748
C426       C    0.8385162811   -0.0149396263    0.4969251262         -0.3945
N427       N    0.8720311336   -0.0000000000    0.5000000000         -0.3808
N428       N    0.8620460314    0.0194106806    0.5170737887         -0.3576
N429       N    0.8321269244    0.0269894367    0.5034739214         -0.3641
H430       H    0.8390324317   -0.0339809605    0.4773331496          0.5801
H431       H    0.8307065671   -0.0281390730    0.5199300461         -0.3875
H432       H    0.8277502526    0.0318047507    0.4722020391         -0.3829
C371       C    1.3720311336   -0.0000000000    0.5000000000         -0.3969
C372       C    1.3650810335   -0.0034930157    0.5325200808          0.5935
C373       C    1.3344307845   -0.0100640918    0.5433892456          0.5873
C374       C    1.3089556188   -0.0128109675    0.5217260958          0.5911
C375       C    1.3157582068   -0.0088777343    0.4892623126         -0.3989
C376       C    1.3466723373   -0.0026907331    0.4778808609          -0.393
C377       C    1.2735401834   -0.0225542897    0.5332668796          0.5821
F378       F    1.3308629715   -0.0147210026    0.5763683798          0.5763
H379       H    1.3848527397   -0.0019091695    0.5511097150          0.5897
N380       N    1.3507666482    0.0008463716    0.4446771754          -0.383
H381       H    1.2955460401   -0.0113443132    0.4712158867          -0.396
O382       O    1.2465926302   -0.0115506804    0.5114606050          0.5985
C383       C    1.2239823447   -0.0124266454    0.5661147584          0.5876
C384       C    1.2618656526   -0.0082635866    0.5669606617          0.5887
C385       C    1.1858345008    0.0039397385    0.5180291619         -0.3849
H386       H    1.2721966226   -0.0216879194    0.5883165042          0.5713
H387       H    1.2162682209   -0.0339571773    0.5809922035          0.5654
H388       H    1.2121038127    0.0099156781    0.5764244538         -0.3936
H389       H    1.2683453115    0.0182006334    0.5687645157         -0.3882
H390       H    1.2093610485   -0.0448411654    0.5256044230          0.5678
C391       C    1.2154460282   -0.0183918479    0.5290016780          0.5906
H392       H    1.2723056832   -0.0498257735    0.5346197618          0.5572
H393       H    1.3696548740    0.0154059422    0.4357609867         -0.3691
H394       H    1.3304706979    0.0048585012    0.4298206902         -0.3748
C395       C    1.1614837189   -0.0140708209    0.4941127866         -0.3945
N396       N    1.1279688664   -0.0000000000    0.5000000000         -0.3808
N397       N    1.1379539686    0.0256585609    0.4968492809         -0.3576
N398       N    1.1678730756    0.0242461214    0.5123540850         -0.3641
H399       H    1.1609675683   -0.0408447108    0.4995512400          0.5801
H400       H    1.1692934329   -0.0119950318    0.4676714773         -0.3875
H401       H    1.1722497474    0.0105842980    0.5408930487         -0.3829
C340       C   -0.0000000000   -0.1279688664    0.0000000000         -0.3969
C341       C   -0.0312974252   -0.1349189665   -0.0094988415          0.5935
C342       C   -0.0438705036   -0.1655692155   -0.0077000966          0.5873
C343       C   -0.0250054188   -0.1910443812    0.0032974468          0.5911
C344       C    0.0064122942   -0.1842417932    0.0123690978         -0.3989
C345       C    0.0193067312   -0.1533276627    0.0111241400          -0.393
C346       C   -0.0394368640   -0.2264598166    0.0077533877          0.5821
F347       F   -0.0760454755   -0.1691370285   -0.0163071458          0.5763
H348       H   -0.0477883053   -0.1151472603   -0.0182243180          0.5897
N349       N    0.0512505899   -0.1492333518    0.0208496593          -0.383
H350       H    0.0220580921   -0.2044539599    0.0216946813          -0.396
O351       O   -0.0150642413   -0.2534073698    0.0061507982          0.5985
C352       C   -0.0657109491   -0.2760176553   -0.0144102035          0.5876
C353       C   -0.0648619636   -0.2381343474   -0.0185726349          0.5887
C354       C   -0.0150539707   -0.3141654992   -0.0106747453         -0.3849
H355       H   -0.0897663949   -0.2278033774   -0.0145658884          0.5713
H356       H   -0.0878217461   -0.2837317791   -0.0004096738          0.5654
H357       H   -0.0664652827   -0.2878961873   -0.0390049229         -0.3936
H358       H   -0.0561759620   -0.2316546885   -0.0436357991         -0.3882
H359       H   -0.0410973987   -0.2906389515    0.0312621242          0.5678
C360       C   -0.0338838060   -0.2845539718    0.0055897301          0.5906
H361       H   -0.0513439610   -0.2276943168    0.0323254279          0.5572
H362       H    0.0651492613   -0.1303451260    0.0109346983         -0.3691
H363       H    0.0664932094   -0.1695293021    0.0229650532         -0.3748
C364       C   -0.0000823890   -0.3385162811    0.0152525570         -0.3945
N365       N   -0.0000000000   -0.3720311336    0.0000000000         -0.3808
N366       N    0.0129312662   -0.3620460314   -0.0223846183         -0.3576
N367       N   -0.0018917138   -0.3321269244   -0.0271462565         -0.3641
H368       H   -0.0155553515   -0.3390324317    0.0377693371          0.5801
H369       H    0.0250660021   -0.3307065671    0.0236793096         -0.3875
H370       H   -0.0335004119   -0.3277502526   -0.0257291897         -0.3829
C309       C    0.0000000000    0.1279688664    0.0000000000         -0.3969
C310       C    0.0161048793    0.1349189665    0.0284673440          0.5935
C311       C    0.0170955126    0.1655692155    0.0411297462          0.5873
C312       C    0.0022433291    0.1910443812    0.0251219346          0.5911
C313       C   -0.0134709431    0.1842417932   -0.0035560916         -0.3989
C314       C   -0.0150721793    0.1533276627   -0.0164111477          -0.393
C315       C    0.0010467791    0.2264598166    0.0401781721          0.5821
F316       F    0.0325217838    0.1691370285    0.0706482195          0.5763
H317       H    0.0282213195    0.1151472603    0.0426544842          0.5897
N318       N   -0.0315394452    0.1492333518   -0.0454598137          -0.383
H319       H   -0.0259884378    0.2044539599   -0.0167874872          -0.396
O320       O   -0.0027122900    0.2534073698    0.0160439137          0.5985
C321       C    0.0284135783    0.2760176553    0.0609774660          0.5876
C322       C    0.0322901080    0.2381343474    0.0592399021          0.5887
C323       C    0.0137048320    0.3141654992    0.0123591989         -0.3849
H324       H    0.0338192047    0.2278033774    0.0844181979          0.5713
H325       H    0.0195800188    0.2837317791    0.0856122058          0.5654
H326       H    0.0525793131    0.2878961873    0.0563421126         -0.3936
H327       H    0.0548512137    0.2316546885    0.0452898005         -0.3882
H328       H   -0.0215317828    0.2906389515    0.0469329194          0.5678
C329       C    0.0019454191    0.2845539718    0.0342866262          0.5906
H330       H   -0.0203315725    0.2276943168    0.0571643488          0.5572
H331       H   -0.0248993014    0.1303451260   -0.0611883867         -0.3691
H332       H   -0.0369327543    0.1695293021   -0.0598724663         -0.3748
C333       C   -0.0148663578    0.3385162811    0.0034115525         -0.3945
N334       N   -0.0000000000    0.3720311336    0.0000000000         -0.3808
N335       N    0.0190200572    0.3620460314   -0.0175078897         -0.3576
N336       N    0.0269040797    0.3321269244   -0.0040826850         -0.3641
H337       H   -0.0334602808    0.3390324317    0.0234286447          0.5801
H338       H   -0.0285820824    0.3307065671   -0.0192893425         -0.3875
H339       H    0.0324245489    0.3277502526    0.0270724477         -0.3829
C278       C   -0.3720311336   -0.0000000000    0.0000000000         -0.3969
C279       C   -0.3650810335    0.0265214868   -0.0191407301          0.5935
C280       C   -0.3344307845    0.0327095025   -0.0302324499          0.5873
C281       C   -0.3089556188    0.0125294290   -0.0218896673          0.5911
C282       C   -0.3157582068   -0.0137251235   -0.0023943854         -0.3989
C283       C   -0.3466723373   -0.0205484035    0.0086173935          -0.393
C284       C   -0.2735401834    0.0177297891   -0.0360698744          0.5821
F285       F   -0.3308629715    0.0590533450   -0.0506116566          0.5763
H286       H   -0.3848527397    0.0434554633   -0.0269716630          0.5897
N287       N   -0.3507666482   -0.0476419287    0.0281349941          -0.383
H288       H   -0.2955460401   -0.0306243844    0.0044006482          -0.396
O289       O   -0.2465926302    0.0042355759   -0.0157106200          0.5985
C290       C   -0.2239823447    0.0512819469   -0.0435401505          0.5876
C291       C   -0.2618656526    0.0540786532   -0.0403424881          0.5887
C292       C   -0.1858345008    0.0176138742   -0.0055066917         -0.3849
H293       H   -0.2721966226    0.0659826474   -0.0625816347          0.5713
H294       H   -0.2162682209    0.0535431481   -0.0696129170          0.5654
H295       H   -0.2121038127    0.0713038599   -0.0292365761         -0.3936
H296       H   -0.2683453115    0.0687526579   -0.0182453749         -0.3882
H297       H   -0.2093610485    0.0000350981   -0.0516363763          0.5678
C298       C   -0.2154460282    0.0160859721   -0.0303413727          0.5906
H299       H   -0.2723056832    0.0053983518   -0.0604317252          0.5572
H300       H   -0.3696548740   -0.0481768580    0.0451993831         -0.3691
H301       H   -0.3304706979   -0.0585612548    0.0389784555         -0.3748
C302       C   -0.1614837189   -0.0120833046   -0.0093081165         -0.3945
N303       N   -0.1279688664   -0.0000000000    0.0000000000         -0.3808
N304       N   -0.1379539686    0.0099707540    0.0238510554         -0.3576
N305       N   -0.1678730756    0.0227408479    0.0149449543         -0.3641
H306       H   -0.1609675683   -0.0206190025   -0.0352611475          0.5801
H307       H   -0.1692934329   -0.0340258332    0.0055907820         -0.3875
H308       H   -0.1722497474    0.0407674797   -0.0110580919         -0.3829
C247       C    0.3720311336   -0.0000000000    0.0000000000         -0.3969
C248       C    0.3650810335   -0.0324899461    0.0037630057          0.5935
C249       C    0.3344307845   -0.0445404324   -0.0002499191          0.5873
C250       C    0.3089556188   -0.0240160197   -0.0077055124          0.5911
C251       C    0.3157582068    0.0085160739   -0.0110267213         -0.3989
C252       C    0.3466723373    0.0209815590   -0.0075013693          -0.393
C253       C    0.2735401834   -0.0374210175   -0.0146645392          0.5821
F254       F    0.3308629715   -0.0777347520    0.0024790461          0.5763
H255       H    0.3848527397   -0.0502729045    0.0094065382          0.5897
N256       N    0.3507666482    0.0541480079   -0.0113720929          -0.383
H257       H    0.2955460401    0.0255745658   -0.0174114964          -0.396
O258       O    0.2465926302   -0.0137252803   -0.0087395860          0.5985
C259       C    0.2239823447   -0.0672275971    0.0024562124          0.5876
C260       C    0.2618656526   -0.0671348081    0.0067033292          0.5887
C261       C    0.1858345008   -0.0167168490    0.0078178756         -0.3849
H262       H    0.2721966226   -0.0909249214   -0.0016820882          0.5713
H263       H    0.2162682209   -0.0864860019   -0.0152642848          0.5654
H264       H    0.2121038127   -0.0723575241    0.0265218121         -0.3936
H265       H    0.2683453115   -0.0630594116    0.0329140135         -0.3882
H266       H    0.2093610485   -0.0348609589   -0.0380923895          0.5678
C267       C    0.2154460282   -0.0323430375   -0.0115449261          0.5906
H268       H    0.2723056832   -0.0447534534   -0.0409666209          0.5572
H269       H    0.3696548740    0.0660548903    0.0008633340         -0.3691
H270       H    0.3304706979    0.0695234924   -0.0107342708         -0.3748
C271       C    0.1614837189    0.0026399866   -0.0150225748         -0.3945
N272       N    0.1279688664   -0.0000000000    0.0000000000         -0.3808
N273       N    0.1379539686    0.0087304111    0.0243324619         -0.3576
N274       N    0.1678730756   -0.0067042553    0.0263732968         -0.3641
H275       H    0.1609675683   -0.0085677695   -0.0399385166          0.5801
H276       H    0.1692934329    0.0288882806   -0.0188276768         -0.3875
H277       H    0.1722497474   -0.0375530844    0.0193399754         -0.3829
C216       C    0.0000000000   -0.0000000000   -0.1279688664         -0.3969
C217       C   -0.0049093737   -0.0323365870   -0.1349189665          0.5935
C218       C   -0.0013250171   -0.0445214207   -0.1655692155          0.5873
C219       C    0.0068515798   -0.0242734418   -0.1910443812          0.5911
C220       C    0.0113209230    0.0081208865   -0.1842417932         -0.3989
C221       C    0.0082385073    0.0207032209   -0.1533276627          -0.393
C222       C    0.0133323060   -0.0379161032   -0.2264598166          0.5821
F223       F   -0.0052259007   -0.0775985007   -0.1691370285          0.5763
H224       H   -0.0111781153   -0.0499088933   -0.1151472603          0.5897
N225       N    0.0132794500    0.0537120794   -0.1492333518          -0.383
H226       H    0.0183048295    0.0249429718   -0.2044539599          -0.396
O227       O    0.0082488482   -0.0140256974   -0.2534073698          0.5985
C228       C   -0.0048315884   -0.0670987224   -0.2760176553          0.5876
C229       C   -0.0090727691   -0.0668558295   -0.2381343474          0.5887
C230       C   -0.0084040318   -0.0164299869   -0.3141654992         -0.3849
H231       H   -0.0015337222   -0.0909275451   -0.2278033774          0.5713
H232       H    0.0121969257   -0.0869716156   -0.2837317791          0.5654
H233       H   -0.0290635163   -0.0713745742   -0.2878961873         -0.3936
H234       H   -0.0351229753   -0.0618562711   -0.2316546885         -0.3882
H235       H    0.0368360225   -0.0361859647   -0.2906389515          0.5678
C236       C    0.0103941814   -0.0327310004   -0.2845539718          0.5906
H237       H    0.0393586960   -0.0461738960   -0.2276943168          0.5572
H238       H    0.0014726550    0.0660441153   -0.1303451260         -0.3691
H239       H    0.0131856452    0.0691005016   -0.1695293021         -0.3748
C240       C    0.0151065222    0.0021071950   -0.3385162811         -0.3945
N241       N    0.0000000000    0.0000000000   -0.3720311336         -0.3808
N242       N   -0.0240085745    0.0095852558   -0.3620460314         -0.3576
N243       N   -0.0265938444   -0.0057676043   -0.3321269244         -0.3641
H244       H    0.0396106224   -0.0099744865   -0.3390324317          0.5801
H245       H    0.0198372848    0.0282045440   -0.3307065671         -0.3875
H246       H   -0.0206556175   -0.0368458174   -0.3277502526         -0.3829
C185       C   -0.0000000000    0.0000000000    0.1279688664         -0.3969
C186       C   -0.0315044179    0.0087879727    0.1349189665          0.5935
C187       C   -0.0411464112    0.0170553635    0.1655692155          0.5873
C188       C   -0.0193263261    0.0162060867    0.1910443812          0.5911
C189       C    0.0120502400    0.0069931261    0.1842417932         -0.3989
C190       C    0.0222606561   -0.0009795667    0.1533276627          -0.393
C191       C   -0.0291096754    0.0277129584    0.2264598166          0.5821
F192       F   -0.0729124404    0.0270668317    0.1691370285          0.5763
H193       H   -0.0501016822    0.0102795590    0.1151472603          0.5897
N194       N    0.0544321480   -0.0099233323    0.1492333518          -0.383
H195       H    0.0302566920    0.0064615179    0.2044539599          -0.396
O196       O   -0.0094073461    0.0132765026    0.2534073698          0.5985
C197       C   -0.0631750462    0.0231191766    0.2760176553          0.5876
C198       C   -0.0646933661    0.0191516439    0.2381343474          0.5887
C199       C   -0.0184314339   -0.0009243727    0.3141654992         -0.3849
H200       H   -0.0835537053    0.0359019372    0.2278033774          0.5713
H201       H   -0.0743133155    0.0468012614    0.2837317791          0.5654
H202       H   -0.0770150782    0.0027740850    0.2878961873         -0.3936
H203       H   -0.0708202669   -0.0066566864    0.2316546885         -0.3882
H204       H   -0.0178900249    0.0484382452    0.2906389515          0.5678
C205       C   -0.0255862301    0.0229063795    0.2845539718          0.5906
H206       H   -0.0259640047    0.0548361749    0.2276943168          0.5572
H207       H    0.0608353453   -0.0257498475    0.1303451260         -0.3691
H208       H    0.0684276736   -0.0163215822    0.1695293021         -0.3748
C209       C    0.0081187889    0.0129124959    0.3385162811         -0.3945
N210       N    0.0000000000    0.0000000000    0.3720311336         -0.3808
N211       N   -0.0011072882   -0.0258275568    0.3620460314         -0.3576
N212       N   -0.0161694026   -0.0218871707    0.3321269244         -0.3641
H213       H    0.0071526514    0.0402160585    0.3390324317          0.5801
H214       H    0.0338598462    0.0065211183    0.3307065671         -0.3875
H215       H   -0.0420762557   -0.0037225668    0.3277502526         -0.3829
loop_
_geom_bond_atom_site_label_1
_geom_bond_atom_site_label_2
_geom_bond_distance
_geom_bond_site_symmetry_2
_ccdc_geom_bond_type
Zn1          O5 1.942       .   S
Zn1          O6 1.922       .   S
Zn1         O10 1.922       .   S
Zn1         O17 1.922       .   S
Zn2          O5 1.942       .   S
Zn2          O7 1.922       .   S
Zn2          O9 1.922       .   S
Zn2         O13 1.922       .   S
Zn3          O5 1.942       .   S
Zn3          O8 1.922       .   S
Zn3         O11 1.922       .   S
Zn3         O14 1.922       .   S
Zn4          O5 1.942       .   S
Zn4         O12 1.922       .   S
Zn4         O15 1.922       .   S
Zn4         O16 1.922       .   S
O6          C18 1.304       .   A
O7          C19 1.304       .   A
O8          C20 1.304       .   A
O9          C18 1.304       .   A
O10         C20 1.304       .   A
O11         C19 1.304       .   A
O12         C21 1.304       .   A
O13         C22 1.304       .   A
O14         C21 1.304       .   A
O15         C22 1.304       .   A
O16         C23 1.304       .   A
O17         C23 1.304       .   A
C18        C185 1.540       .   S
C19        N272 1.540       .   S
C20        C340 1.540       .   S
C21        C216 1.540       .   S
C22        C309 1.540       .   S
C23        N303 1.540       .   S
Zn24        O28 1.942       .   S
Zn24        O29 1.922       .   S
Zn24        O33 1.922       .   S
Zn24        O40 1.922       .   S
Zn25        O28 1.942       .   S
Zn25        O30 1.922       .   S
Zn25        O32 1.922       .   S
Zn25        O36 1.922       .   S
Zn26        O28 1.942       .   S
Zn26        O31 1.922       .   S
Zn26        O34 1.922       .   S
Zn26        O37 1.922       .   S
Zn27        O28 1.942       .   S
Zn27        O35 1.922       .   S
Zn27        O38 1.922       .   S
Zn27        O39 1.922       .   S
O29         C41 1.304       .   A
O30         C42 1.304       .   A
O31         C43 1.304       .   A
O32         C41 1.304       .   A
O33         C43 1.304       .   A
O34         C42 1.304       .   A
O35         C44 1.304       .   A
O36         C45 1.304       .   A
O37         C44 1.304       .   A
O38         C45 1.304       .   A
O39         C46 1.304       .   A
O40         C46 1.304       .   A
C41        N210 1.540   1_655   S
C42        N396 1.540       .   S
C43        C433 1.540       .   S
C44        N241 1.540   1_656   S
C45        N489 1.540       .   S
C46        N427 1.540       .   S
Zn47        O51 1.942       .   S
Zn47        O52 1.922       .   S
Zn47        O56 1.922       .   S
Zn47        O63 1.922       .   S
Zn48        O51 1.942       .   S
Zn48        O53 1.922       .   S
Zn48        O55 1.922       .   S
Zn48        O59 1.922       .   S
Zn49        O51 1.942       .   S
Zn49        O54 1.922       .   S
Zn49        O57 1.922       .   S
Zn49        O60 1.922       .   S
Zn50        O51 1.942       .   S
Zn50        O58 1.922       .   S
Zn50        O61 1.922       .   S
Zn50        O62 1.922       .   S
O52         C64 1.304       .   A
O53         C65 1.304       .   A
O54         C66 1.304       .   A
O55         C64 1.304       .   A
O56         C66 1.304       .   A
O57         C65 1.304       .   A
O58         C67 1.304       .   A
O59         C68 1.304       .   A
O60         C67 1.304       .   A
O61         C68 1.304       .   A
O62         C69 1.304       .   A
O63         C69 1.304       .   A
C64        N334 1.540   1_655   S
C65        N520 1.540       .   S
C66        C557 1.540       .   S
C67        N365 1.540   1_665   S
C68        C588 1.540       .   S
C69        N551 1.540       .   S
Zn70        O74 1.942       .   S
Zn70        O75 1.922       .   S
Zn70        O79 1.922       .   S
Zn70        O86 1.922       .   S
Zn71        O74 1.942       .   S
Zn71        O76 1.922       .   S
Zn71        O78 1.922       .   S
Zn71        O82 1.922       .   S
Zn72        O74 1.942       .   S
Zn72        O77 1.922       .   S
Zn72        O80 1.922       .   S
Zn72        O83 1.922       .   S
Zn73        O74 1.942       .   S
Zn73        O81 1.922       .   S
Zn73        O84 1.922       .   S
Zn73        O85 1.922       .   S
O75         C87 1.304       .   A
O76         C88 1.304       .   A
O77         C89 1.304       .   A
O78         C87 1.304       .   A
O79         C89 1.304       .   A
O80         C88 1.304       .   A
O81         C90 1.304       .   A
O82         C91 1.304       .   A
O83         C90 1.304       .   A
O84         C91 1.304       .   A
O85         C92 1.304       .   A
O86         C92 1.304       .   A
C87        C526 1.540   1_556   S
C88        C619 1.540       .   S
C89        N458 1.540       .   S
C90        C495 1.540       .   S
C91        C464 1.540   1_565   S
C92        C650 1.540       .   S
Zn93        O97 1.942       .   S
Zn93        O98 1.922       .   S
Zn93       O102 1.922       .   S
Zn93       O109 1.922       .   S
Zn94        O97 1.942       .   S
Zn94        O99 1.922       .   S
Zn94       O101 1.922       .   S
Zn94       O105 1.922       .   S
Zn95        O97 1.942       .   S
Zn95       O100 1.922       .   S
Zn95       O103 1.922       .   S
Zn95       O106 1.922       .   S
Zn96        O97 1.942       .   S
Zn96       O104 1.922       .   S
Zn96       O107 1.922       .   S
Zn96       O108 1.922       .   S
O98        C110 1.304       .   A
O99        C111 1.304       .   A
O100       C112 1.304       .   A
O101       C110 1.304       .   A
O102       C112 1.304       .   A
O103       C111 1.304       .   A
O104       C113 1.304       .   A
O105       C114 1.304       .   A
O106       C113 1.304       .   A
O107       C114 1.304       .   A
O108       C115 1.304       .   A
O109       C115 1.304       .   A
C110       C247 1.540   1_565   S
C111       C681 1.540       .   S
C112       N799 1.540       .   S
C113       C278 1.540   1_665   S
C114       C743 1.540       .   S
C115       C712 1.540       .   S
Zn116      O120 1.942       .   S
Zn116      O121 1.922       .   S
Zn116      O125 1.922       .   S
Zn116      O132 1.922       .   S
Zn117      O120 1.942       .   S
Zn117      O122 1.922       .   S
Zn117      O124 1.922       .   S
Zn117      O128 1.922       .   S
Zn118      O120 1.942       .   S
Zn118      O123 1.922       .   S
Zn118      O126 1.922       .   S
Zn118      O129 1.922       .   S
Zn119      O120 1.942       .   S
Zn119      O127 1.922       .   S
Zn119      O130 1.922       .   S
Zn119      O131 1.922       .   S
O121       C133 1.304       .   A
O122       C134 1.304       .   A
O123       C135 1.304       .   A
O124       C133 1.304       .   A
O125       C135 1.304       .   A
O126       C134 1.304       .   A
O127       C136 1.304       .   A
O128       C137 1.304       .   A
O129       C136 1.304       .   A
O130       C137 1.304       .   A
O131       C138 1.304       .   A
O132       C138 1.304       .   A
C133       C371 1.540   1_465   S
C134       N706 1.540       .   S
C135       C805 1.540       .   S
C136       C402 1.540   1_565   S
C137       C836 1.540       .   S
C138       N737 1.540   1_556   S
Zn139      O143 1.942       .   S
Zn139      O144 1.922       .   S
Zn139      O148 1.922       .   S
Zn139      O155 1.922       .   S
Zn140      O143 1.942       .   S
Zn140      O145 1.922       .   S
Zn140      O147 1.922       .   S
Zn140      O151 1.922       .   S
Zn141      O143 1.942       .   S
Zn141      O146 1.922       .   S
Zn141      O149 1.922       .   S
Zn141      O152 1.922       .   S
Zn142      O143 1.942       .   S
Zn142      O150 1.922       .   S
Zn142      O153 1.922       .   S
Zn142      O154 1.922       .   S
O144       C156 1.304       .   A
O145       C157 1.304       .   A
O146       C158 1.304       .   A
O147       C156 1.304       .   A
O148       C158 1.304       .   A
O149       C157 1.304       .   A
O150       C159 1.304       .   A
O151       C160 1.304       .   A
O152       C159 1.304       .   A
O153       C160 1.304       .   A
O154       C161 1.304       .   A
O155       C161 1.304       .   A
C156       N582 1.540   1_455   S
C157       N768 1.540   1_545   S
C158       C898 1.540       .   S
C159       N613 1.540       .   S
C160       N892 1.540       .   S
C161       C774 1.540       .   S
Zn162      O166 1.942       .   S
Zn162      O167 1.922       .   S
Zn162      O171 1.922       .   S
Zn162      O178 1.922       .   S
Zn163      O166 1.942       .   S
Zn163      O168 1.922       .   S
Zn163      O170 1.922       .   S
Zn163      O174 1.922       .   S
Zn164      O166 1.942       .   S
Zn164      O169 1.922       .   S
Zn164      O172 1.922       .   S
Zn164      O175 1.922       .   S
Zn165      O166 1.942       .   S
Zn165      O173 1.922       .   S
Zn165      O176 1.922       .   S
Zn165      O177 1.922       .   S
O167       C179 1.304       .   A
O168       C180 1.304       .   A
O169       C181 1.304       .   A
O170       C179 1.304       .   A
O171       C181 1.304       .   A
O172       C180 1.304       .   A
O173       C182 1.304       .   A
O174       C183 1.304       .   A
O175       C182 1.304       .   A
O176       C183 1.304       .   A
O177       C184 1.304       .   A
O178       C184 1.304       .   A
C179       N644 1.540   1_455   S
C180       N830 1.540   1_545   S
C181       C867 1.540       .   S
C182       N675 1.540       .   S
C183       N923 1.540   1_556   S
C184       N861 1.540       .   S
C898       C899 0.031       .   A
C898       C903 0.031       .   A
C899       C900 0.031       .   A
C899       H906 0.025       .   A
C900       C901 0.031       .   A
C900       F905 0.031       .   A
C901       C902 0.031       .   A
C901       C904 0.036       .   A
C902       C903 0.031       .   A
C902       H908 0.025       .   A
C903       N907 0.031       .   A
C904       O909 0.034       .   A
C904       C911 0.036       .   A
C904       H919 0.025       .   A
N907       H920 0.024       .   A
N907       H921 0.024       .   A
O909       C918 0.034       .   A
C910       C911 0.036       .   A
C910       H914 0.025       .   A
C910       H915 0.025       .   A
C910       C918 0.036       .   A
C911       H913 0.025       .   A
C911       H916 0.025       .   A
C912       C918 0.036       .   A
C912       C922 0.036       .   A
C912       N925 0.026       .   A
C912       H928 0.026       .   A
H917       C918 0.025       .   A
C922       N923 0.034       .   A
C922       H926 0.025       .   A
C922       H927 0.026       .   A
N923       N924 0.026       .   A
N924       N925 0.031       .   A
C867       C868 0.031       .   A
C867       C872 0.031       .   A
C868       C869 0.031       .   A
C868       H875 0.025       .   A
C869       C870 0.031       .   A
C869       F874 0.031       .   A
C870       C871 0.031       .   A
C870       C873 0.036       .   A
C871       C872 0.031       .   A
C871       H877 0.025       .   A
C872       N876 0.031       .   A
C873       O878 0.034       .   A
C873       C880 0.036       .   A
C873       H888 0.025       .   A
N876       H889 0.024       .   A
N876       H890 0.024       .   A
O878       C887 0.034       .   A
C879       C880 0.036       .   A
C879       H883 0.025       .   A
C879       H884 0.025       .   A
C879       C887 0.036       .   A
C880       H882 0.025       .   A
C880       H885 0.025       .   A
C881       C887 0.036       .   A
C881       C891 0.036       .   A
C881       N894 0.026       .   A
C881       H897 0.026       .   A
H886       C887 0.025       .   A
C891       N892 0.034       .   A
C891       H895 0.025       .   A
C891       H896 0.026       .   A
N892       N893 0.026       .   A
N893       N894 0.031       .   A
C836       C837 0.031       .   A
C836       C841 0.031       .   A
C837       C838 0.031       .   A
C837       H844 0.025       .   A
C838       C839 0.031       .   A
C838       F843 0.031       .   A
C839       C840 0.031       .   A
C839       C842 0.036       .   A
C840       C841 0.031       .   A
C840       H846 0.025       .   A
C841       N845 0.031       .   A
C842       O847 0.034       .   A
C842       C849 0.036       .   A
C842       H857 0.025       .   A
N845       H858 0.024       .   A
N845       H859 0.024       .   A
O847       C856 0.034       .   A
C848       C849 0.036       .   A
C848       H852 0.025       .   A
C848       H853 0.025       .   A
C848       C856 0.036       .   A
C849       H851 0.025       .   A
C849       H854 0.025       .   A
C850       C856 0.036       .   A
C850       C860 0.036       .   A
C850       N863 0.026       .   A
C850       H866 0.026       .   A
H855       C856 0.025       .   A
C860       N861 0.034       .   A
C860       H864 0.025       .   A
C860       H865 0.026       .   A
N861       N862 0.026       .   A
N862       N863 0.031       .   A
C805       C806 0.031       .   A
C805       C810 0.031       .   A
C806       C807 0.031       .   A
C806       H813 0.025       .   A
C807       C808 0.031       .   A
C807       F812 0.031       .   A
C808       C809 0.031       .   A
C808       C811 0.036       .   A
C809       C810 0.031       .   A
C809       H815 0.025       .   A
C810       N814 0.031       .   A
C811       O816 0.034       .   A
C811       C818 0.036       .   A
C811       H826 0.025       .   A
N814       H827 0.024       .   A
N814       H828 0.024       .   A
O816       C825 0.034       .   A
C817       C818 0.036       .   A
C817       H821 0.025       .   A
C817       H822 0.025       .   A
C817       C825 0.036       .   A
C818       H820 0.025       .   A
C818       H823 0.025       .   A
C819       C825 0.036       .   A
C819       C829 0.036       .   A
C819       N832 0.026       .   A
C819       H835 0.026       .   A
H824       C825 0.025       .   A
C829       N830 0.034       .   A
C829       H833 0.025       .   A
C829       H834 0.026       .   A
N830       N831 0.026       .   A
N831       N832 0.031       .   A
C774       C775 0.031       .   A
C774       C779 0.031       .   A
C775       C776 0.031       .   A
C775       H782 0.025       .   A
C776       C777 0.031       .   A
C776       F781 0.031       .   A
C777       C778 0.031       .   A
C777       C780 0.036       .   A
C778       C779 0.031       .   A
C778       H784 0.025       .   A
C779       N783 0.031       .   A
C780       O785 0.034       .   A
C780       C787 0.036       .   A
C780       H795 0.025       .   A
N783       H796 0.024       .   A
N783       H797 0.024       .   A
O785       C794 0.034       .   A
C786       C787 0.036       .   A
C786       H790 0.025       .   A
C786       H791 0.025       .   A
C786       C794 0.036       .   A
C787       H789 0.025       .   A
C787       H792 0.025       .   A
C788       C794 0.036       .   A
C788       C798 0.036       .   A
C788       N801 0.026       .   A
C788       H804 0.026       .   A
H793       C794 0.025       .   A
C798       N799 0.034       .   A
C798       H802 0.025       .   A
C798       H803 0.026       .   A
N799       N800 0.026       .   A
N800       N801 0.031       .   A
C743       C744 0.031       .   A
C743       C748 0.031       .   A
C744       C745 0.031       .   A
C744       H751 0.025       .   A
C745       C746 0.031       .   A
C745       F750 0.031       .   A
C746       C747 0.031       .   A
C746       C749 0.036       .   A
C747       C748 0.031       .   A
C747       H753 0.025       .   A
C748       N752 0.031       .   A
C749       O754 0.034       .   A
C749       C756 0.036       .   A
C749       H764 0.025       .   A
N752       H765 0.024       .   A
N752       H766 0.024       .   A
O754       C763 0.034       .   A
C755       C756 0.036       .   A
C755       H759 0.025       .   A
C755       H760 0.025       .   A
C755       C763 0.036       .   A
C756       H758 0.025       .   A
C756       H761 0.025       .   A
C757       C763 0.036       .   A
C757       C767 0.036       .   A
C757       N770 0.026       .   A
C757       H773 0.026       .   A
H762       C763 0.025       .   A
C767       N768 0.034       .   A
C767       H771 0.025       .   A
C767       H772 0.026       .   A
N768       N769 0.026       .   A
N769       N770 0.031       .   A
C712       C713 0.031       .   A
C712       C717 0.031       .   A
C713       C714 0.031       .   A
C713       H720 0.025       .   A
C714       C715 0.031       .   A
C714       F719 0.031       .   A
C715       C716 0.031       .   A
C715       C718 0.036       .   A
C716       C717 0.031       .   A
C716       H722 0.025       .   A
C717       N721 0.031       .   A
C718       O723 0.034       .   A
C718       C725 0.036       .   A
C718       H733 0.025       .   A
N721       H734 0.024       .   A
N721       H735 0.024       .   A
O723       C732 0.034       .   A
C724       C725 0.036       .   A
C724       H728 0.025       .   A
C724       H729 0.025       .   A
C724       C732 0.036       .   A
C725       H727 0.025       .   A
C725       H730 0.025       .   A
C726       C732 0.036       .   A
C726       C736 0.036       .   A
C726       N739 0.026       .   A
C726       H742 0.026       .   A
H731       C732 0.025       .   A
C736       N737 0.034       .   A
C736       H740 0.025       .   A
C736       H741 0.026       .   A
N737       N738 0.026       .   A
N738       N739 0.031       .   A
C681       C682 0.031       .   A
C681       C686 0.031       .   A
C682       C683 0.031       .   A
C682       H689 0.025       .   A
C683       C684 0.031       .   A
C683       F688 0.031       .   A
C684       C685 0.031       .   A
C684       C687 0.036       .   A
C685       C686 0.031       .   A
C685       H691 0.025       .   A
C686       N690 0.031       .   A
C687       O692 0.034       .   A
C687       C694 0.036       .   A
C687       H702 0.025       .   A
N690       H703 0.024       .   A
N690       H704 0.024       .   A
O692       C701 0.034       .   A
C693       C694 0.036       .   A
C693       H697 0.025       .   A
C693       H698 0.025       .   A
C693       C701 0.036       .   A
C694       H696 0.025       .   A
C694       H699 0.025       .   A
C695       C701 0.036       .   A
C695       C705 0.036       .   A
C695       N708 0.026       .   A
C695       H711 0.026       .   A
H700       C701 0.025       .   A
C705       N706 0.034       .   A
C705       H709 0.025       .   A
C705       H710 0.026       .   A
N706       N707 0.026       .   A
N707       N708 0.031       .   A
C650       C651 0.031       .   A
C650       C655 0.031       .   A
C651       C652 0.031       .   A
C651       H658 0.025       .   A
C652       C653 0.031       .   A
C652       F657 0.031       .   A
C653       C654 0.031       .   A
C653       C656 0.036       .   A
C654       C655 0.031       .   A
C654       H660 0.025       .   A
C655       N659 0.031       .   A
C656       O661 0.034       .   A
C656       C663 0.036       .   A
C656       H671 0.025       .   A
N659       H672 0.024       .   A
N659       H673 0.024       .   A
O661       C670 0.034       .   A
C662       C663 0.036       .   A
C662       H666 0.025       .   A
C662       H667 0.025       .   A
C662       C670 0.036       .   A
C663       H665 0.025       .   A
C663       H668 0.025       .   A
C664       C670 0.036       .   A
C664       C674 0.036       .   A
C664       N677 0.026       .   A
C664       H680 0.026       .   A
H669       C670 0.025       .   A
C674       N675 0.034       .   A
C674       H678 0.025       .   A
C674       H679 0.026       .   A
N675       N676 0.026       .   A
N676       N677 0.031       .   A
C619       C620 0.031       .   A
C619       C624 0.031       .   A
C620       C621 0.031       .   A
C620       H627 0.025       .   A
C621       C622 0.031       .   A
C621       F626 0.031       .   A
C622       C623 0.031       .   A
C622       C625 0.036       .   A
C623       C624 0.031       .   A
C623       H629 0.025       .   A
C624       N628 0.031       .   A
C625       O630 0.034       .   A
C625       C632 0.036       .   A
C625       H640 0.025       .   A
N628       H641 0.024       .   A
N628       H642 0.024       .   A
O630       C639 0.034       .   A
C631       C632 0.036       .   A
C631       H635 0.025       .   A
C631       H636 0.025       .   A
C631       C639 0.036       .   A
C632       H634 0.025       .   A
C632       H637 0.025       .   A
C633       C639 0.036       .   A
C633       C643 0.036       .   A
C633       N646 0.026       .   A
C633       H649 0.026       .   A
H638       C639 0.025       .   A
C643       N644 0.034       .   A
C643       H647 0.025       .   A
C643       H648 0.026       .   A
N644       N645 0.026       .   A
N645       N646 0.031       .   A
C588       C589 0.031       .   A
C588       C593 0.031       .   A
C589       C590 0.031       .   A
C589       H596 0.025       .   A
C590       C591 0.031       .   A
C590       F595 0.031       .   A
C591       C592 0.031       .   A
C591       C594 0.036       .   A
C592       C593 0.031       .   A
C592       H598 0.025       .   A
C593       N597 0.031       .   A
C594       O599 0.034       .   A
C594       C601 0.036       .   A
C594       H609 0.025       .   A
N597       H610 0.024       .   A
N597       H611 0.024       .   A
O599       C608 0.034       .   A
C600       C601 0.036       .   A
C600       H604 0.025       .   A
C600       H605 0.025       .   A
C600       C608 0.036       .   A
C601       H603 0.025       .   A
C601       H606 0.025       .   A
C602       C608 0.036       .   A
C602       C612 0.036       .   A
C602       N615 0.026       .   A
C602       H618 0.026       .   A
H607       C608 0.025       .   A
C612       N613 0.034       .   A
C612       H616 0.025       .   A
C612       H617 0.026       .   A
N613       N614 0.026       .   A
N614       N615 0.031       .   A
C557       C558 0.031       .   A
C557       C562 0.031       .   A
C558       C559 0.031       .   A
C558       H565 0.025       .   A
C559       C560 0.031       .   A
C559       F564 0.031       .   A
C560       C561 0.031       .   A
C560       C563 0.036       .   A
C561       C562 0.031       .   A
C561       H567 0.025       .   A
C562       N566 0.031       .   A
C563       O568 0.034       .   A
C563       C570 0.036       .   A
C563       H578 0.025       .   A
N566       H579 0.024       .   A
N566       H580 0.024       .   A
O568       C577 0.034       .   A
C569       C570 0.036       .   A
C569       H573 0.025       .   A
C569       H574 0.025       .   A
C569       C577 0.036       .   A
C570       H572 0.025       .   A
C570       H575 0.025       .   A
C571       C577 0.036       .   A
C571       C581 0.036       .   A
C571       N584 0.026       .   A
C571       H587 0.026       .   A
H576       C577 0.025       .   A
C581       N582 0.034       .   A
C581       H585 0.025       .   A
C581       H586 0.026       .   A
N582       N583 0.026       .   A
N583       N584 0.031       .   A
C526       C527 0.031       .   A
C526       C531 0.031       .   A
C527       C528 0.031       .   A
C527       H534 0.025       .   A
C528       C529 0.031       .   A
C528       F533 0.031       .   A
C529       C530 0.031       .   A
C529       C532 0.036       .   A
C530       C531 0.031       .   A
C530       H536 0.025       .   A
C531       N535 0.031       .   A
C532       O537 0.034       .   A
C532       C539 0.036       .   A
C532       H547 0.025       .   A
N535       H548 0.024       .   A
N535       H549 0.024       .   A
O537       C546 0.034       .   A
C538       C539 0.036       .   A
C538       H542 0.025       .   A
C538       H543 0.025       .   A
C538       C546 0.036       .   A
C539       H541 0.025       .   A
C539       H544 0.025       .   A
C540       C546 0.036       .   A
C540       C550 0.036       .   A
C540       N553 0.026       .   A
C540       H556 0.026       .   A
H545       C546 0.025       .   A
C550       N551 0.034       .   A
C550       H554 0.025       .   A
C550       H555 0.026       .   A
N551       N552 0.026       .   A
N552       N553 0.031       .   A
C495       C496 0.031       .   A
C495       C500 0.031       .   A
C496       C497 0.031       .   A
C496       H503 0.025       .   A
C497       C498 0.031       .   A
C497       F502 0.031       .   A
C498       C499 0.031       .   A
C498       C501 0.036       .   A
C499       C500 0.031       .   A
C499       H505 0.025       .   A
C500       N504 0.031       .   A
C501       O506 0.034       .   A
C501       C508 0.036       .   A
C501       H516 0.025       .   A
N504       H517 0.024       .   A
N504       H518 0.024       .   A
O506       C515 0.034       .   A
C507       C508 0.036       .   A
C507       H511 0.025       .   A
C507       H512 0.025       .   A
C507       C515 0.036       .   A
C508       H510 0.025       .   A
C508       H513 0.025       .   A
C509       C515 0.036       .   A
C509       C519 0.036       .   A
C509       N522 0.026       .   A
C509       H525 0.026       .   A
H514       C515 0.025       .   A
C519       N520 0.034       .   A
C519       H523 0.025       .   A
C519       H524 0.026       .   A
N520       N521 0.026       .   A
N521       N522 0.031       .   A
C464       C465 0.031       .   A
C464       C469 0.031       .   A
C465       C466 0.031       .   A
C465       H472 0.025       .   A
C466       C467 0.031       .   A
C466       F471 0.031       .   A
C467       C468 0.031       .   A
C467       C470 0.036       .   A
C468       C469 0.031       .   A
C468       H474 0.025       .   A
C469       N473 0.031       .   A
C470       O475 0.034       .   A
C470       C477 0.036       .   A
C470       H485 0.025       .   A
N473       H486 0.024       .   A
N473       H487 0.024       .   A
O475       C484 0.034       .   A
C476       C477 0.036       .   A
C476       H480 0.025       .   A
C476       H481 0.025       .   A
C476       C484 0.036       .   A
C477       H479 0.025       .   A
C477       H482 0.025       .   A
C478       C484 0.036       .   A
C478       C488 0.036       .   A
C478       N491 0.026       .   A
C478       H494 0.026       .   A
H483       C484 0.025       .   A
C488       N489 0.034       .   A
C488       H492 0.025       .   A
C488       H493 0.026       .   A
N489       N490 0.026       .   A
N490       N491 0.031       .   A
C433       C434 0.031       .   A
C433       C438 0.031       .   A
C434       C435 0.031       .   A
C434       H441 0.025       .   A
C435       C436 0.031       .   A
C435       F440 0.031       .   A
C436       C437 0.031       .   A
C436       C439 0.036       .   A
C437       C438 0.031       .   A
C437       H443 0.025       .   A
C438       N442 0.031       .   A
C439       O444 0.034       .   A
C439       C446 0.036       .   A
C439       H454 0.025       .   A
N442       H455 0.024       .   A
N442       H456 0.024       .   A
O444       C453 0.034       .   A
C445       C446 0.036       .   A
C445       H449 0.025       .   A
C445       H450 0.025       .   A
C445       C453 0.036       .   A
C446       H448 0.025       .   A
C446       H451 0.025       .   A
C447       C453 0.036       .   A
C447       C457 0.036       .   A
C447       N460 0.026       .   A
C447       H463 0.026       .   A
H452       C453 0.025       .   A
C457       N458 0.034       .   A
C457       H461 0.025       .   A
C457       H462 0.026       .   A
N458       N459 0.026       .   A
N459       N460 0.031       .   A
C402       C403 0.031       .   A
C402       C407 0.031       .   A
C403       C404 0.031       .   A
C403       H410 0.025       .   A
C404       C405 0.031       .   A
C404       F409 0.031       .   A
C405       C406 0.031       .   A
C405       C408 0.036       .   A
C406       C407 0.031       .   A
C406       H412 0.025       .   A
C407       N411 0.031       .   A
C408       O413 0.034       .   A
C408       C415 0.036       .   A
C408       H423 0.025       .   A
N411       H424 0.024       .   A
N411       H425 0.024       .   A
O413       C422 0.034       .   A
C414       C415 0.036       .   A
C414       H418 0.025       .   A
C414       H419 0.025       .   A
C414       C422 0.036       .   A
C415       H417 0.025       .   A
C415       H420 0.025       .   A
C416       C422 0.036       .   A
C416       C426 0.036       .   A
C416       N429 0.026       .   A
C416       H432 0.026       .   A
H421       C422 0.025       .   A
C426       N427 0.034       .   A
C426       H430 0.025       .   A
C426       H431 0.026       .   A
N427       N428 0.026       .   A
N428       N429 0.031       .   A
C371       C372 0.031       .   A
C371       C376 0.031       .   A
C372       C373 0.031       .   A
C372       H379 0.025       .   A
C373       C374 0.031       .   A
C373       F378 0.031       .   A
C374       C375 0.031       .   A
C374       C377 0.036       .   A
C375       C376 0.031       .   A
C375       H381 0.025       .   A
C376       N380 0.031       .   A
C377       O382 0.034       .   A
C377       C384 0.036       .   A
C377       H392 0.025       .   A
N380       H393 0.024       .   A
N380       H394 0.024       .   A
O382       C391 0.034       .   A
C383       C384 0.036       .   A
C383       H387 0.025       .   A
C383       H388 0.025       .   A
C383       C391 0.036       .   A
C384       H386 0.025       .   A
C384       H389 0.025       .   A
C385       C391 0.036       .   A
C385       C395 0.036       .   A
C385       N398 0.026       .   A
C385       H401 0.026       .   A
H390       C391 0.025       .   A
C395       N396 0.034       .   A
C395       H399 0.025       .   A
C395       H400 0.026       .   A
N396       N397 0.026       .   A
N397       N398 0.031       .   A
C340       C341 0.031       .   A
C340       C345 0.031       .   A
C341       C342 0.031       .   A
C341       H348 0.025       .   A
C342       C343 0.031       .   A
C342       F347 0.031       .   A
C343       C344 0.031       .   A
C343       C346 0.036       .   A
C344       C345 0.031       .   A
C344       H350 0.025       .   A
C345       N349 0.031       .   A
C346       O351 0.034       .   A
C346       C353 0.036       .   A
C346       H361 0.025       .   A
N349       H362 0.024       .   A
N349       H363 0.024       .   A
O351       C360 0.034       .   A
C352       C353 0.036       .   A
C352       H356 0.025       .   A
C352       H357 0.025       .   A
C352       C360 0.036       .   A
C353       H355 0.025       .   A
C353       H358 0.025       .   A
C354       C360 0.036       .   A
C354       C364 0.036       .   A
C354       N367 0.026       .   A
C354       H370 0.026       .   A
H359       C360 0.025       .   A
C364       N365 0.034       .   A
C364       H368 0.025       .   A
C364       H369 0.026       .   A
N365       N366 0.026       .   A
N366       N367 0.031       .   A
C309       C310 0.031       .   A
C309       C314 0.031       .   A
C310       C311 0.031       .   A
C310       H317 0.025       .   A
C311       C312 0.031       .   A
C311       F316 0.031       .   A
C312       C313 0.031       .   A
C312       C315 0.036       .   A
C313       C314 0.031       .   A
C313       H319 0.025       .   A
C314       N318 0.031       .   A
C315       O320 0.034       .   A
C315       C322 0.036       .   A
C315       H330 0.025       .   A
N318       H331 0.024       .   A
N318       H332 0.024       .   A
O320       C329 0.034       .   A
C321       C322 0.036       .   A
C321       H325 0.025       .   A
C321       H326 0.025       .   A
C321       C329 0.036       .   A
C322       H324 0.025       .   A
C322       H327 0.025       .   A
C323       C329 0.036       .   A
C323       C333 0.036       .   A
C323       N336 0.026       .   A
C323       H339 0.026       .   A
H328       C329 0.025       .   A
C333       N334 0.034       .   A
C333       H337 0.025       .   A
C333       H338 0.026       .   A
N334       N335 0.026       .   A
N335       N336 0.031       .   A
C278       C279 0.031       .   A
C278       C283 0.031       .   A
C279       C280 0.031       .   A
C279       H286 0.025       .   A
C280       C281 0.031       .   A
C280       F285 0.031       .   A
C281       C282 0.031       .   A
C281       C284 0.036       .   A
C282       C283 0.031       .   A
C282       H288 0.025       .   A
C283       N287 0.031       .   A
C284       O289 0.034       .   A
C284       C291 0.036       .   A
C284       H299 0.025       .   A
N287       H300 0.024       .   A
N287       H301 0.024       .   A
O289       C298 0.034       .   A
C290       C291 0.036       .   A
C290       H294 0.025       .   A
C290       H295 0.025       .   A
C290       C298 0.036       .   A
C291       H293 0.025       .   A
C291       H296 0.025       .   A
C292       C298 0.036       .   A
C292       C302 0.036       .   A
C292       N305 0.026       .   A
C292       H308 0.026       .   A
H297       C298 0.025       .   A
C302       N303 0.034       .   A
C302       H306 0.025       .   A
C302       H307 0.026       .   A
N303       N304 0.026       .   A
N304       N305 0.031       .   A
C247       C248 0.031       .   A
C247       C252 0.031       .   A
C248       C249 0.031       .   A
C248       H255 0.025       .   A
C249       C250 0.031       .   A
C249       F254 0.031       .   A
C250       C251 0.031       .   A
C250       C253 0.036       .   A
C251       C252 0.031       .   A
C251       H257 0.025       .   A
C252       N256 0.031       .   A
C253       O258 0.034       .   A
C253       C260 0.036       .   A
C253       H268 0.025       .   A
N256       H269 0.024       .   A
N256       H270 0.024       .   A
O258       C267 0.034       .   A
C259       C260 0.036       .   A
C259       H263 0.025       .   A
C259       H264 0.025       .   A
C259       C267 0.036       .   A
C260       H262 0.025       .   A
C260       H265 0.025       .   A
C261       C267 0.036       .   A
C261       C271 0.036       .   A
C261       N274 0.026       .   A
C261       H277 0.026       .   A
H266       C267 0.025       .   A
C271       N272 0.034       .   A
C271       H275 0.025       .   A
C271       H276 0.026       .   A
N272       N273 0.026       .   A
N273       N274 0.031       .   A
C216       C217 0.031       .   A
C216       C221 0.031       .   A
C217       C218 0.031       .   A
C217       H224 0.025       .   A
C218       C219 0.031       .   A
C218       F223 0.031       .   A
C219       C220 0.031       .   A
C219       C222 0.036       .   A
C220       C221 0.031       .   A
C220       H226 0.025       .   A
C221       N225 0.031       .   A
C222       O227 0.034       .   A
C222       C229 0.036       .   A
C222       H237 0.025       .   A
N225       H238 0.024       .   A
N225       H239 0.024       .   A
O227       C236 0.034       .   A
C228       C229 0.036       .   A
C228       H232 0.025       .   A
C228       H233 0.025       .   A
C228       C236 0.036       .   A
C229       H231 0.025       .   A
C229       H234 0.025       .   A
C230       C236 0.036       .   A
C230       C240 0.036       .   A
C230       N243 0.026       .   A
C230       H246 0.026       .   A
H235       C236 0.025       .   A
C240       N241 0.034       .   A
C240       H244 0.025       .   A
C240       H245 0.026       .   A
N241       N242 0.026       .   A
N242       N243 0.031       .   A
C185       C186 0.031       .   A
C185       C190 0.031       .   A
C186       C187 0.031       .   A
C186       H193 0.025       .   A
C187       C188 0.031       .   A
C187       F192 0.031       .   A
C188       C189 0.031       .   A
C188       C191 0.036       .   A
C189       C190 0.031       .   A
C189       H195 0.025       .   A
C190       N194 0.031       .   A
C191       O196 0.034       .   A
C191       C198 0.036       .   A
C191       H206 0.025       .   A
N194       H207 0.024       .   A
N194       H208 0.024       .   A
O196       C205 0.034       .   A
C197       C198 0.036       .   A
C197       H201 0.025       .   A
C197       H202 0.025       .   A
C197       C205 0.036       .   A
C198       H200 0.025       .   A
C198       H203 0.025       .   A
C199       C205 0.036       .   A
C199       C209 0.036       .   A
C199       N212 0.026       .   A
C199       H215 0.026       .   A
H204       C205 0.025       .   A
C209       N210 0.034       .   A
C209       H213 0.025       .   A
C209       H214 0.026       .   A
N210       N211 0.026       .   A
N211       N212 0.031       .   A
