data_pcu_v1-6c_Zn_1_Ch_1-98_fer_tobacco
_audit_creation_date              2021-04-07
_audit_creation_method            'tobacco_3.0'
_symmetry_space_group_name_H-M    'P1'
_symmetry_Int_Tables_number       1
_symmetry_cell_setting            triclinic
loop_
_symmetry_equiv_pos_as_xyz
  x,y,z
_cell_length_a                    38.290425048367396
_cell_length_b                    38.290425048367396
_cell_length_c                    38.290425048367396
_cell_angle_alpha                 90.0
_cell_angle_beta                  90.0
_cell_angle_gamma                 90.0
loop_
_atom_site_label
_atom_site_type_symbol
_atom_site_fract_x
_atom_site_fract_y
_atom_site_fract_z
_atom_site_charge
Zn1       Zn   -0.0292814718   -0.0292814718    0.0292814718          1.4972
Zn2       Zn    0.0292814718    0.0292814718    0.0292814718          1.4936
Zn3       Zn    0.0292814718   -0.0292814718   -0.0292814718          1.4911
Zn4       Zn   -0.0292814718    0.0292814718   -0.0292814718          1.4948
O5         O    0.0000000000    0.0000000000    0.0000000000         -2.3313
O6         O   -0.0215197402   -0.0215197402    0.0782597737         -1.2376
O7         O    0.0782597737    0.0215197402    0.0215197402         -1.2358
O8         O    0.0215197402   -0.0782597737   -0.0215197402          -1.231
O9         O    0.0215197402    0.0215197402    0.0782597737         -1.2378
O10        O   -0.0215197402   -0.0782597737    0.0215197402         -1.2338
O11        O    0.0782597737   -0.0215197402   -0.0215197402         -1.2396
O12        O   -0.0215197402    0.0215197402   -0.0782597737         -1.2335
O13        O    0.0215197402    0.0782597737    0.0215197402         -1.2411
O14        O    0.0215197402   -0.0215197402   -0.0782597737          -1.235
O15        O   -0.0215197402    0.0782597737   -0.0215197402         -1.2397
O16        O   -0.0782597737    0.0215197402   -0.0215197402         -1.2388
O17        O   -0.0782597737   -0.0215197402    0.0215197402         -1.2366
C18        C   -0.0000000000   -0.0000000000    0.0935690841          0.2812
C19        C    0.0935690841   -0.0000000000   -0.0000000000          0.2861
C20        C   -0.0000000000   -0.0935690841    0.0000000000          0.2757
C21        C    0.0000000000    0.0000000000   -0.0935690841          0.2795
C22        C    0.0000000000    0.0935690841   -0.0000000000          0.2909
C23        C   -0.0935690841    0.0000000000    0.0000000000          0.2814
Zn24      Zn    0.9707185282   -0.0292814718    0.4707185282          1.4972
Zn25      Zn    1.0292814718   -0.0292814718    0.5292814718          1.4936
Zn26      Zn    1.0292814718    0.0292814718    0.4707185282          1.4911
Zn27      Zn    0.9707185282    0.0292814718    0.5292814718          1.4948
O28        O    1.0000000000    0.0000000000    0.5000000000         -2.3313
O29        O    0.9784802598   -0.0782597737    0.4784802598         -1.2376
O30        O    1.0782597737   -0.0215197402    0.5215197402         -1.2358
O31        O    1.0215197402    0.0215197402    0.4217402263          -1.231
O32        O    1.0215197402   -0.0782597737    0.5215197402         -1.2378
O33        O    0.9784802598   -0.0215197402    0.4217402263         -1.2338
O34        O    1.0782597737    0.0215197402    0.4784802598         -1.2396
O35        O    0.9784802598    0.0782597737    0.5215197402         -1.2335
O36        O    1.0215197402   -0.0215197402    0.5782597737         -1.2411
O37        O    1.0215197402    0.0782597737    0.4784802598          -1.235
O38        O    0.9784802598    0.0215197402    0.5782597737         -1.2397
O39        O    0.9217402263    0.0215197402    0.5215197402         -1.2388
O40        O    0.9217402263   -0.0215197402    0.4784802598         -1.2366
C41        C    1.0000000000   -0.0935690841    0.5000000000          0.2812
C42        C    1.0935690841    0.0000000000    0.5000000000          0.2861
C43        C    1.0000000000    0.0000000000    0.4064309159          0.2757
C44        C    1.0000000000    0.0935690841    0.5000000000          0.2795
C45        C    1.0000000000    0.0000000000    0.5935690841          0.2909
C46        C    0.9064309159    0.0000000000    0.5000000000          0.2814
Zn47      Zn    1.0292814718    0.5292814718   -0.0292814718          1.4972
Zn48      Zn    0.9707185282    0.5292814718    0.0292814718          1.4936
Zn49      Zn    0.9707185282    0.4707185282   -0.0292814718          1.4911
Zn50      Zn    1.0292814718    0.4707185282    0.0292814718          1.4948
O51        O    1.0000000000    0.5000000000    0.0000000000         -2.3313
O52        O    1.0215197402    0.5782597737   -0.0215197402         -1.2376
O53        O    0.9217402263    0.5215197402    0.0215197402         -1.2358
O54        O    0.9784802598    0.4784802598   -0.0782597737          -1.231
O55        O    0.9784802598    0.5782597737    0.0215197402         -1.2378
O56        O    1.0215197402    0.5215197402   -0.0782597737         -1.2338
O57        O    0.9217402263    0.4784802598   -0.0215197402         -1.2396
O58        O    1.0215197402    0.4217402263    0.0215197402         -1.2335
O59        O    0.9784802598    0.5215197402    0.0782597737         -1.2411
O60        O    0.9784802598    0.4217402263   -0.0215197402          -1.235
O61        O    1.0215197402    0.4784802598    0.0782597737         -1.2397
O62        O    1.0782597737    0.4784802598    0.0215197402         -1.2388
O63        O    1.0782597737    0.5215197402   -0.0215197402         -1.2366
C64        C    1.0000000000    0.5935690841    0.0000000000          0.2812
C65        C    0.9064309159    0.5000000000    0.0000000000          0.2861
C66        C    1.0000000000    0.5000000000   -0.0935690841          0.2757
C67        C    1.0000000000    0.4064309159    0.0000000000          0.2795
C68        C    1.0000000000    0.5000000000    0.0935690841          0.2909
C69        C    1.0935690841    0.5000000000    0.0000000000          0.2814
Zn70      Zn    0.9707185282    0.4707185282    0.5292814718          1.4972
Zn71      Zn    1.0292814718    0.4707185282    0.4707185282          1.4936
Zn72      Zn    0.9707185282    0.5292814718    0.4707185282          1.4911
Zn73      Zn    1.0292814718    0.5292814718    0.5292814718          1.4948
O74        O    1.0000000000    0.5000000000    0.5000000000         -2.3313
O75        O    0.9784802598    0.4217402263    0.5215197402         -1.2376
O76        O    1.0215197402    0.4784802598    0.4217402263         -1.2358
O77        O    0.9217402263    0.5215197402    0.4784802598          -1.231
O78        O    1.0215197402    0.4217402263    0.4784802598         -1.2378
O79        O    0.9217402263    0.4784802598    0.5215197402         -1.2338
O80        O    0.9784802598    0.5215197402    0.4217402263         -1.2396
O81        O    1.0215197402    0.5782597737    0.5215197402         -1.2335
O82        O    1.0782597737    0.4784802598    0.4784802598         -1.2411
O83        O    0.9784802598    0.5782597737    0.4784802598          -1.235
O84        O    1.0782597737    0.5215197402    0.5215197402         -1.2397
O85        O    1.0215197402    0.5215197402    0.5782597737         -1.2388
O86        O    0.9784802598    0.4784802598    0.5782597737         -1.2366
C87        C    1.0000000000    0.4064309159    0.5000000000          0.2812
C88        C    1.0000000000    0.5000000000    0.4064309159          0.2861
C89        C    0.9064309159    0.5000000000    0.5000000000          0.2757
C90        C    1.0000000000    0.5935690841    0.5000000000          0.2795
C91        C    1.0935690841    0.5000000000    0.5000000000          0.2909
C92        C    1.0000000000    0.5000000000    0.5935690841          0.2814
Zn93      Zn    0.4707185282    0.9707185282   -0.0292814718          1.4972
Zn94      Zn    0.4707185282    1.0292814718    0.0292814718          1.4936
Zn95      Zn    0.5292814718    0.9707185282    0.0292814718          1.4911
Zn96      Zn    0.5292814718    1.0292814718   -0.0292814718          1.4948
O97        O    0.5000000000    1.0000000000    0.0000000000         -2.3313
O98        O    0.4217402263    0.9784802598   -0.0215197402         -1.2376
O99        O    0.4784802598    1.0215197402    0.0782597737         -1.2358
O100       O    0.5215197402    0.9217402263    0.0215197402          -1.231
O101       O    0.4217402263    1.0215197402    0.0215197402         -1.2378
O102       O    0.4784802598    0.9217402263   -0.0215197402         -1.2338
O103       O    0.5215197402    0.9784802598    0.0782597737         -1.2396
O104       O    0.5782597737    1.0215197402   -0.0215197402         -1.2335
O105       O    0.4784802598    1.0782597737    0.0215197402         -1.2411
O106       O    0.5782597737    0.9784802598    0.0215197402          -1.235
O107       O    0.5215197402    1.0782597737   -0.0215197402         -1.2397
O108       O    0.5215197402    1.0215197402   -0.0782597737         -1.2388
O109       O    0.4784802598    0.9784802598   -0.0782597737         -1.2366
C110       C    0.4064309159    1.0000000000    0.0000000000          0.2812
C111       C    0.5000000000    1.0000000000    0.0935690841          0.2861
C112       C    0.5000000000    0.9064309159    0.0000000000          0.2757
C113       C    0.5935690841    1.0000000000    0.0000000000          0.2795
C114       C    0.5000000000    1.0935690841    0.0000000000          0.2909
C115       C    0.5000000000    1.0000000000   -0.0935690841          0.2814
Zn116     Zn    0.4707185282    1.0292814718    0.5292814718          1.4972
Zn117     Zn    0.4707185282    0.9707185282    0.4707185282          1.4936
Zn118     Zn    0.5292814718    1.0292814718    0.4707185282          1.4911
Zn119     Zn    0.5292814718    0.9707185282    0.5292814718          1.4948
O120       O    0.5000000000    1.0000000000    0.5000000000         -2.3313
O121       O    0.4217402263    1.0215197402    0.5215197402         -1.2376
O122       O    0.4784802598    0.9784802598    0.4217402263         -1.2358
O123       O    0.5215197402    1.0782597737    0.4784802598          -1.231
O124       O    0.4217402263    0.9784802598    0.4784802598         -1.2378
O125       O    0.4784802598    1.0782597737    0.5215197402         -1.2338
O126       O    0.5215197402    1.0215197402    0.4217402263         -1.2396
O127       O    0.5782597737    0.9784802598    0.5215197402         -1.2335
O128       O    0.4784802598    0.9217402263    0.4784802598         -1.2411
O129       O    0.5782597737    1.0215197402    0.4784802598          -1.235
O130       O    0.5215197402    0.9217402263    0.5215197402         -1.2397
O131       O    0.5215197402    0.9784802598    0.5782597737         -1.2388
O132       O    0.4784802598    1.0215197402    0.5782597737         -1.2366
C133       C    0.4064309159    1.0000000000    0.5000000000          0.2812
C134       C    0.5000000000    1.0000000000    0.4064309159          0.2861
C135       C    0.5000000000    1.0935690841    0.5000000000          0.2757
C136       C    0.5935690841    1.0000000000    0.5000000000          0.2795
C137       C    0.5000000000    0.9064309159    0.5000000000          0.2909
C138       C    0.5000000000    1.0000000000    0.5935690841          0.2814
Zn139     Zn    0.4707185282    0.5292814718   -0.0292814718          1.4972
Zn140     Zn    0.4707185282    0.4707185282    0.0292814718          1.4936
Zn141     Zn    0.5292814718    0.4707185282   -0.0292814718          1.4911
Zn142     Zn    0.5292814718    0.5292814718    0.0292814718          1.4948
O143       O    0.5000000000    0.5000000000    0.0000000000         -2.3313
O144       O    0.4217402263    0.5215197402   -0.0215197402         -1.2376
O145       O    0.4784802598    0.4217402263    0.0215197402         -1.2358
O146       O    0.5215197402    0.4784802598   -0.0782597737          -1.231
O147       O    0.4217402263    0.4784802598    0.0215197402         -1.2378
O148       O    0.4784802598    0.5215197402   -0.0782597737         -1.2338
O149       O    0.5215197402    0.4217402263   -0.0215197402         -1.2396
O150       O    0.5782597737    0.5215197402    0.0215197402         -1.2335
O151       O    0.4784802598    0.4784802598    0.0782597737         -1.2411
O152       O    0.5782597737    0.4784802598   -0.0215197402          -1.235
O153       O    0.5215197402    0.5215197402    0.0782597737         -1.2397
O154       O    0.5215197402    0.5782597737    0.0215197402         -1.2388
O155       O    0.4784802598    0.5782597737   -0.0215197402         -1.2366
C156       C    0.4064309159    0.5000000000    0.0000000000          0.2812
C157       C    0.5000000000    0.4064309159    0.0000000000          0.2861
C158       C    0.5000000000    0.5000000000   -0.0935690841          0.2757
C159       C    0.5935690841    0.5000000000    0.0000000000          0.2795
C160       C    0.5000000000    0.5000000000    0.0935690841          0.2909
C161       C    0.5000000000    0.5935690841    0.0000000000          0.2814
Zn162     Zn    0.4707185282    0.5292814718    0.4707185282          1.4972
Zn163     Zn    0.4707185282    0.4707185282    0.5292814718          1.4936
Zn164     Zn    0.5292814718    0.4707185282    0.4707185282          1.4911
Zn165     Zn    0.5292814718    0.5292814718    0.5292814718          1.4948
O166       O    0.5000000000    0.5000000000    0.5000000000         -2.3313
O167       O    0.4217402263    0.5215197402    0.4784802598         -1.2376
O168       O    0.4784802598    0.4217402263    0.5215197402         -1.2358
O169       O    0.5215197402    0.4784802598    0.4217402263          -1.231
O170       O    0.4217402263    0.4784802598    0.5215197402         -1.2378
O171       O    0.4784802598    0.5215197402    0.4217402263         -1.2338
O172       O    0.5215197402    0.4217402263    0.4784802598         -1.2396
O173       O    0.5782597737    0.5215197402    0.5215197402         -1.2335
O174       O    0.4784802598    0.4784802598    0.5782597737         -1.2411
O175       O    0.5782597737    0.4784802598    0.4784802598          -1.235
O176       O    0.5215197402    0.5215197402    0.5782597737         -1.2397
O177       O    0.5215197402    0.5782597737    0.5215197402         -1.2388
O178       O    0.4784802598    0.5782597737    0.4784802598         -1.2366
C179       C    0.4064309159    0.5000000000    0.5000000000          0.2812
C180       C    0.5000000000    0.4064309159    0.5000000000          0.2861
C181       C    0.5000000000    0.5000000000    0.4064309159          0.2757
C182       C    0.5935690841    0.5000000000    0.5000000000          0.2795
C183       C    0.5000000000    0.5000000000    0.5935690841          0.2909
C184       C    0.5000000000    0.5935690841    0.5000000000          0.2814
C737       C    0.5000000000    0.5000000000   -0.1337880160          0.5051
C738       C    0.5306052548    0.5005941091   -0.1518018928          0.5048
C739       C    0.5310907800    0.5005493014   -0.1870257443          0.5053
C740       C    0.5010813972    0.4997960443   -0.2052983218          0.5062
C741       C    0.4710265459    0.4993883951   -0.1875697548          0.5064
C742       C    0.4705584968    0.4995172801   -0.1527137276          0.5058
C743       C    0.5024694640    0.4990927388   -0.2454702540         -0.4926
N744       N    0.5617813514    0.5012382742   -0.2044160444          0.5049
Br745     Br    0.5756162193    0.5011715254   -0.1301859438          0.5039
H746       H    0.4452381356    0.4991498458   -0.1398861605           0.506
H747       H    0.4462330146    0.4988997439   -0.2013941593          -0.493
C748       C    0.4681239476    0.4992025955   -0.2669180802         -0.4924
N749       N    0.4768289350    0.5011981522   -0.3048470572          0.5063
N750       N    0.4968860325    0.5202427861   -0.2965158338          0.4892
N751       N    0.5142860425    0.5029934997   -0.2714364978          0.5043
C752       C    0.4761420139    0.5018111353   -0.3402669796          0.5063
H753       H    0.4509387719    0.5208103950   -0.2588193472          0.4883
H754       H    0.4539910910    0.4748066788   -0.2620860489         -0.4707
H755       H    0.5189029435    0.4773110751   -0.2540266675         -0.4731
C756       C    0.5000000000    0.5000000000   -0.3662119840         -0.4918
H757       H    0.5275972337    0.4975133530   -0.3597262611         -0.4897
H758       H    0.4475147942    0.5040683579   -0.3417814046          0.5043
H759       H    0.5630862588    0.4942038261   -0.2300385113         -0.4885
H760       H    0.5842798776    0.4936601225   -0.1924159970         -0.4886
C713       C    0.5000000000    0.5000000000    0.1337880160          0.5051
C714       C    0.5306052548    0.4994058909    0.1518018928          0.5048
C715       C    0.5310907800    0.4994506986    0.1870257443          0.5053
C716       C    0.5010813972    0.5002039557    0.2052983218          0.5062
C717       C    0.4710265459    0.5006116049    0.1875697548          0.5064
C718       C    0.4705584968    0.5004827199    0.1527137276          0.5058
C719       C    0.5024694640    0.5009072612    0.2454702540         -0.4926
N720       N    0.5617813514    0.4987617258    0.2044160444          0.5049
Br721     Br    0.5756162193    0.4988284746    0.1301859438          0.5039
H722       H    0.4452381356    0.5008501542    0.1398861605           0.506
H723       H    0.4462330146    0.5011002561    0.2013941593          -0.493
C724       C    0.4681239476    0.5007974045    0.2669180802         -0.4924
N725       N    0.4768289350    0.4988018478    0.3048470572          0.5063
N726       N    0.4968860325    0.4797572139    0.2965158338          0.4892
N727       N    0.5142860425    0.4970065003    0.2714364978          0.5043
C728       C    0.4761420139    0.4981888647    0.3402669796          0.5063
H729       H    0.4509387719    0.4791896050    0.2588193472          0.4883
H730       H    0.4539910910    0.5251933212    0.2620860489         -0.4707
H731       H    0.5189029435    0.5226889249    0.2540266675         -0.4731
C732       C    0.5000000000    0.5000000000    0.3662119840         -0.4918
H733       H    0.5275972337    0.5024866470    0.3597262611         -0.4897
H734       H    0.4475147942    0.4959316421    0.3417814046          0.5043
H735       H    0.5630862588    0.5057961739    0.2300385113         -0.4885
H736       H    0.5842798776    0.5063398775    0.1924159970         -0.4886
C689       C    0.5000000000    0.6337880160    0.5000000000          0.5051
C690       C    0.4950937416    0.6518018928    0.5302152812          0.5048
C691       C    0.4950695984    0.6870257443    0.5307022715          0.5053
C692       C    0.5000493413    0.7052983218    0.5010993559          0.5062
C693       C    0.5046933486    0.6875697548    0.4714026648          0.5064
C694       C    0.5046317899    0.6527137276    0.4709211133          0.5058
C695       C    0.5005497693    0.7454702540    0.5025727669         -0.4926
N696       N    0.4900573878    0.7044160444    0.5609886315          0.5049
Br697     Br    0.4881715089    0.6301859438    0.5746945238          0.5039
H698       H    0.5085679959    0.6398861605    0.4459058783           0.506
H699       H    0.5086752285    0.7013941593    0.4469260922          -0.493
C700       C    0.5052868169    0.7669180802    0.4685553162         -0.4924
N701       N    0.5020830364    0.8048470572    0.4768916729          0.5063
N702       N    0.4803990561    0.7965158338    0.4940611295          0.4892
N703       N    0.4950208286    0.7714364978    0.5137207836          0.5043
C704       C    0.5015731028    0.8402669796    0.4761251375          0.5063
H705       H    0.4863198196    0.7588193472    0.4484934053          0.4883
H706       H    0.5314326995    0.7620860489    0.4580058510         -0.4707
H707       H    0.5197949484    0.7540266675    0.5219150315         -0.4731
C708       C    0.5000000000    0.8662119840    0.5000000000         -0.4918
H709       H    0.4985680816    0.8597262611    0.5276720135         -0.4897
H710       H    0.5033774712    0.8417814046    0.4474658107          0.5043
H711       H    0.4968373596    0.7300385113    0.5632729751         -0.4885
H712       H    0.4943854189    0.6924159970    0.5843313008         -0.4886
C665       C    0.5000000000    1.1337880160    0.5000000000          0.5051
C666       C    0.4693947452    1.1518018928    0.4994058909          0.5048
C667       C    0.4689092200    1.1870257443    0.4994506986          0.5053
C668       C    0.4989186028    1.2052983218    0.5002039557          0.5062
C669       C    0.5289734541    1.1875697548    0.5006116049          0.5064
C670       C    0.5294415032    1.1527137276    0.5004827199          0.5058
C671       C    0.4975305360    1.2454702540    0.5009072612         -0.4926
N672       N    0.4382186486    1.2044160444    0.4987617258          0.5049
Br673     Br    0.4243837807    1.1301859438    0.4988284746          0.5039
H674       H    0.5547618644    1.1398861605    0.5008501542           0.506
H675       H    0.5537669854    1.2013941593    0.5011002561          -0.493
C676       C    0.5318760524    1.2669180802    0.5007974045         -0.4924
N677       N    0.5231710650    1.3048470572    0.4988018478          0.5063
N678       N    0.5031139675    1.2965158338    0.4797572139          0.4892
N679       N    0.4857139575    1.2714364978    0.4970065003          0.5043
C680       C    0.5238579861    1.3402669796    0.4981888647          0.5063
H681       H    0.5490612281    1.2588193472    0.4791896050          0.4883
H682       H    0.5460089090    1.2620860489    0.5251933212         -0.4707
H683       H    0.4810970565    1.2540266675    0.5226889249         -0.4731
C684       C    0.5000000000    1.3662119840    0.5000000000         -0.4918
H685       H    0.4724027663    1.3597262611    0.5024866470         -0.4897
H686       H    0.5524852058    1.3417814046    0.4959316421          0.5043
H687       H    0.4369137412    1.2300385113    0.5057961739         -0.4885
H688       H    0.4157201224    1.1924159970    0.5063398775         -0.4886
C641       C    0.5000000000    0.6337880160    0.0000000000          0.5051
C642       C    0.5305891563    0.6518018928    0.0011567638          0.5048
C643       C    0.5310754233    0.6870257443    0.0011208912          0.5053
C644       C    0.5010849646    0.7052983218   -0.0001840370          0.5062
C645       C    0.4710426902    0.6875697548   -0.0011442518          0.5064
C646       C    0.4705723504    0.6527137276   -0.0010239949          0.5058
C647       C    0.5024857288    0.7454702540   -0.0008617005         -0.4926
N648       N    0.5617481376    0.7044160444    0.0023740714          0.5049
Br649     Br    0.5755818938    0.6301859438    0.0025617229          0.5039
H650       H    0.4452630261    0.6398861605   -0.0018569460           0.506
H651       H    0.4462623357    0.7013941593   -0.0020887122          -0.493
C652       C    0.4681439990    0.7669180802   -0.0013833916         -0.4924
N653       N    0.4768108214    0.8048470572    0.0007718910          0.5063
N654       N    0.4965143440    0.7965158338    0.0201821056          0.4892
N655       N    0.5142285842    0.7714364978    0.0032556787          0.5043
C656       C    0.4761127451    0.8402669796    0.0013721396          0.5063
H657       H    0.4505644147    0.7588193472    0.0199047617          0.4883
H658       H    0.4544621125    0.7620860489   -0.0260350522         -0.4707
H659       H    0.5193169410    0.7540266675   -0.0223375105         -0.4731
C660       C    0.5000000000    0.8662119840    0.0000000000         -0.4918
H661       H    0.5276382913    0.8597262611   -0.0019787816         -0.4897
H662       H    0.4474488606    0.8417814046    0.0031025966          0.5043
H663       H    0.5631821704    0.7300385113   -0.0046351933         -0.4885
H664       H    0.5843822036    0.6924159970   -0.0047891067         -0.4886
C617       C    0.5000000000    1.1337880160    0.0000000000          0.5051
C618       C    0.4849987081    1.1518018928   -0.0266832500          0.5048
C619       C    0.4847139766    1.1870257443   -0.0270790661          0.5053
C620       C    0.4992760409    1.2052983218   -0.0008287950          0.5062
C621       C    0.5141590709    1.1875697548    0.0252854862          0.5064
C622       C    0.5145074196    1.1527137276    0.0256236200          0.5058
C623       C    0.4979661893    1.2454702540   -0.0016688288         -0.4926
N624       N    0.4697512125    1.2044160444   -0.0538839453          0.5049
Br625     Br    0.4626809525    1.1301859438   -0.0657759362          0.5039
H626       H    0.5270252614    1.1398861605    0.0476363286           0.506
H627       H    0.5263053788    1.2013941593    0.0469055042          -0.493
C628       C    0.5154702002    1.2669180802    0.0278817409         -0.4924
N629       N    0.5127779451    1.3048470572    0.0193664126          0.5063
N630       N    0.5190279601    1.2965158338   -0.0075765373          0.4892
N631       N    0.4953390169    1.2714364978   -0.0138321108          0.5043
C632       C    0.5136545357    1.3402669796    0.0196478336          0.5063
H633       H    0.5428073381    1.2588193472    0.0317428487          0.4883
H634       H    0.5016043904    1.2620860489    0.0524304213         -0.4707
H635       H    0.4708602037    1.2540266675   -0.0047938357         -0.4731
C636       C    0.5000000000    1.3662119840    0.0000000000         -0.4918
H637       H    0.4838677870    1.3597262611   -0.0225287023         -0.4897
H638       H    0.5301110691    1.3417814046    0.0431806887          0.5043
H639       H    0.4630259911    1.2300385113   -0.0514431176         -0.4885
H640       H    0.4518145313    1.1924159970   -0.0694366793         -0.4886
C593       C    0.5000000000    1.0000000000   -0.1337880160          0.5051
C594       C    0.4694096542    1.0011248705   -0.1518018928          0.5048
C595       C    0.4689274099    1.0011968629   -0.1870257443          0.5053
C596       C    0.4989317571    1.0002643389   -0.2052983218          0.5062
C597       C    0.5289621002    0.9989841997   -0.1875697548          0.5064
C598       C    0.5294221763    0.9988292437   -0.1527137276          0.5058
C599       C    0.4975853595    1.0010444553   -0.2454702540         -0.4926
N600       N    0.4382465569    1.0022318086   -0.2044160444          0.5049
Br601     Br    0.4244372514    1.0030750801   -0.1301859438          0.5039
H602       H    0.5547232374    0.9977747262   -0.1398861605           0.506
H603       H    0.5537439667    0.9980802818   -0.2013941593          -0.493
C604       C    0.5318705516    0.9990067673   -0.2669180802         -0.4924
N605       N    0.5230672689    0.9975030166   -0.3048470572          0.5063
N606       N    0.5019727174    0.9796143293   -0.2965158338          0.4892
N607       N    0.4855684426    0.9978131754   -0.2714364978          0.5043
C608       C    0.5237186967    0.9968524394   -0.3402669796          0.5063
H609       H    0.5478156632    0.9764683407   -0.2588193472          0.4883
H610       H    0.5473506011    1.0225708599   -0.2620860489         -0.4707
H611       H    0.4824005188    1.0237142752   -0.2540266675         -0.4731
C612       C    0.5000000000    1.0000000000   -0.3662119840         -0.4918
H613       H    0.4725858721    1.0040319119   -0.3597262611         -0.4897
H614       H    0.5521740653    0.9929917714   -0.3417814046          0.5043
H615       H    0.4373385898    1.0093284161   -0.2300385113         -0.4885
H616       H    0.4162089110    1.0110609779   -0.1924159970         -0.4886
C569       C    0.5000000000    1.0000000000    0.1337880160          0.5051
C570       C    0.5306052548    0.9994058909    0.1518018928          0.5048
C571       C    0.5310907800    0.9994506986    0.1870257443          0.5053
C572       C    0.5010813972    1.0002039557    0.2052983218          0.5062
C573       C    0.4710265459    1.0006116049    0.1875697548          0.5064
C574       C    0.4705584968    1.0004827199    0.1527137276          0.5058
C575       C    0.5024694640    1.0009072612    0.2454702540         -0.4926
N576       N    0.5617813514    0.9987617258    0.2044160444          0.5049
Br577     Br    0.5756162193    0.9988284746    0.1301859438          0.5039
H578       H    0.4452381356    1.0008501542    0.1398861605           0.506
H579       H    0.4462330146    1.0011002561    0.2013941593          -0.493
C580       C    0.4681239476    1.0007974045    0.2669180802         -0.4924
N581       N    0.4768289350    0.9988018478    0.3048470572          0.5063
N582       N    0.4968860325    0.9797572139    0.2965158338          0.4892
N583       N    0.5142860425    0.9970065003    0.2714364978          0.5043
C584       C    0.4761420139    0.9981888647    0.3402669796          0.5063
H585       H    0.4509387719    0.9791896050    0.2588193472          0.4883
H586       H    0.4539910910    1.0251933212    0.2620860489         -0.4707
H587       H    0.5189029435    1.0226889249    0.2540266675         -0.4731
C588       C    0.5000000000    1.0000000000    0.3662119840         -0.4918
H589       H    0.5275972337    1.0024866470    0.3597262611         -0.4897
H590       H    0.4475147942    0.9959316421    0.3417814046          0.5043
H591       H    0.5630862588    1.0057961739    0.2300385113         -0.4885
H592       H    0.5842798776    1.0063398775    0.1924159970         -0.4886
C545       C    0.8662119840    0.5000000000    0.5000000000          0.5051
C546       C    0.8481981072    0.4694072317    0.4989430627          0.5048
C547       C    0.8129742557    0.4689210844    0.4989805219          0.5053
C548       C    0.7947016782    0.4989156417    0.5001875766          0.5062
C549       C    0.8124302452    0.5289608896    0.5010497506          0.5064
C550       C    0.8472862724    0.5294308345    0.5009279594          0.5058
C551       C    0.7545297460    0.4975170963    0.5008698075         -0.4926
N552       N    0.7955839556    0.4382444440    0.4978274413          0.5049
Br553     Br    0.8698140562    0.4244101491    0.4976849339          0.5039
H554       H    0.8601138395    0.5547427421    0.5016783152           0.506
H555       H    0.7986058407    0.5537441942    0.5019133412          -0.493
C556       C    0.7330819198    0.5318603458    0.5012794299         -0.4924
N557       N    0.6951529428    0.5231865363    0.4991524409          0.5063
N558       N    0.7034841662    0.5034197780    0.4798066273          0.4892
N559       N    0.7285635022    0.4857608675    0.4967907702          0.5043
C560       C    0.6597330204    0.5238826501    0.4985499175          0.5063
H561       H    0.7411806528    0.5493703677    0.4799340232          0.4883
H562       H    0.7379139511    0.5456226041    0.5258863117         -0.4707
H563       H    0.7459733325    0.4807560549    0.5224004278         -0.4731
C564       C    0.6337880160    0.5000000000    0.5000000000         -0.4918
H565       H    0.6402737389    0.4723683131    0.5020689619         -0.4897
H566       H    0.6582185954    0.5525407350    0.4967259319          0.5043
H567       H    0.7699614887    0.4368332918    0.5048413484         -0.4885
H568       H    0.8075840030    0.4156338738    0.5050644422         -0.4886
C521       C    1.1337880160    0.5000000000    0.5000000000          0.5051
C522       C    1.1518018928    0.5305927683    0.4989430627          0.5048
C523       C    1.1870257443    0.5310789156    0.4989805219          0.5053
C524       C    1.2052983218    0.5010843583    0.5001875766          0.5062
C525       C    1.1875697548    0.4710391104    0.5010497506          0.5064
C526       C    1.1527137276    0.4705691655    0.5009279594          0.5058
C527       C    1.2454702540    0.5024829037    0.5008698075         -0.4926
N528       N    1.2044160444    0.5617555560    0.4978274413          0.5049
Br529     Br    1.1301859438    0.5755898509    0.4976849339          0.5039
H530       H    1.1398861605    0.4452572579    0.5016783152           0.506
H531       H    1.2013941593    0.4462558058    0.5019133412          -0.493
C532       C    1.2669180802    0.4681396542    0.5012794299         -0.4924
N533       N    1.3048470572    0.4768134637    0.4991524409          0.5063
N534       N    1.2965158338    0.4965802220    0.4798066273          0.4892
N535       N    1.2714364978    0.5142391325    0.4967907702          0.5043
C536       C    1.3402669796    0.4761173499    0.4985499175          0.5063
H537       H    1.2588193472    0.4506296323    0.4799340232          0.4883
H538       H    1.2620860489    0.4543773959    0.5258863117         -0.4707
H539       H    1.2540266675    0.5192439451    0.5224004278         -0.4731
C540       C    1.3662119840    0.5000000000    0.5000000000         -0.4918
H541       H    1.3597262611    0.5276316869    0.5020689619         -0.4897
H542       H    1.3417814046    0.4474592650    0.4967259319          0.5043
H543       H    1.2300385113    0.5631667082    0.5048413484         -0.4885
H544       H    1.1924159970    0.5843661262    0.5050644422         -0.4886
C497       C    0.6337880160    0.5000000000    0.0000000000          0.5051
C498       C    0.6518018928    0.4700118469   -0.0061437172          0.5048
C499       C    0.6870257443    0.4695480252   -0.0062940898          0.5053
C500       C    0.7052983218    0.4989898234   -0.0004365332          0.5062
C501       C    0.6875697548    0.5284000569    0.0057681774          0.5064
C502       C    0.6527137276    0.5288283594    0.0059967344          0.5058
C503       C    0.7454702540    0.4977901649   -0.0014275869         -0.4926
N504       N    0.7044160444    0.4394558001   -0.0123640029          0.5049
Br505     Br    0.6301859438    0.4259735489   -0.0154683430          0.5039
H506       H    0.6398861605    0.5536109209    0.0112006123           0.506
H507       H    0.7013941593    0.5526952864    0.0107380664          -0.493
C508       C    0.7669180802    0.5312725677    0.0062245547         -0.4924
N509       N    0.8048470572    0.5223418420    0.0062590668          0.5063
N510       N    0.7965158338    0.4985909976    0.0204323737          0.4892
N511       N    0.7714364978    0.4854053248   -0.0002179595          0.5043
C512       C    0.8402669796    0.5228773241    0.0070079779          0.5063
H513       H    0.7588193472    0.5432911828    0.0310797383          0.4883
H514       H    0.7620860489    0.5504194479   -0.0144707435         -0.4707
H515       H    0.7540266675    0.4865430780   -0.0262872562         -0.4731
C516       C    0.8662119840    0.5000000000    0.0000000000         -0.4918
H517       H    0.8597262611    0.4736231647   -0.0084884204         -0.4897
H518       H    0.8417814046    0.5503093848    0.0154988439          0.5043
H519       H    0.7300385113    0.4397280849   -0.0195132758         -0.4885
H520       H    0.6924159970    0.4191716165   -0.0246994786         -0.4886
C473       C    1.1337880160    0.5000000000    0.0000000000          0.5051
C474       C    1.1518018928    0.4858687933    0.0271540712          0.5048
C475       C    1.1870257443    0.4855970011    0.0275588816          0.5053
C476       C    1.2052983218    0.4993032010    0.0008517564          0.5062
C477       C    1.1875697548    0.5133345933   -0.0257298216          0.5064
C478       C    1.1527137276    0.5136718335   -0.0260790356          0.5058
C479       C    1.2454702540    0.4980211785    0.0017336785         -0.4926
N480       N    1.2044160444    0.4715082324    0.0548332735          0.5049
Br481     Br    1.1301859438    0.4648259463    0.0669475245          0.5039
H482       H    1.1398861605    0.5254718125   -0.0484847535           0.506
H483       H    1.2013941593    0.5247759219   -0.0477310483          -0.493
C484       C    1.2669180802    0.5145611417   -0.0283670887         -0.4924
N485       N    1.3048470572    0.5121454596   -0.0197692092          0.5063
N486       N    1.2965158338    0.5192628535    0.0069577050          0.4892
N487       N    1.2714364978    0.4957884262    0.0139755035          0.5043
C488       C    1.3402669796    0.5130124985   -0.0200788096          0.5063
H489       H    1.2588193472    0.5417592339   -0.0331095609          0.4883
H490       H    1.2620860489    0.4999092995   -0.0524548846         -0.4707
H491       H    1.2540266675    0.4710303313    0.0057329646         -0.4731
C492       C    1.3662119840    0.5000000000    0.0000000000         -0.4918
H493       H    1.3597262611    0.4846042115    0.0230382382         -0.4897
H494       H    1.3417814046    0.5286999895   -0.0441311564          0.5043
H495       H    1.2300385113    0.4647076495    0.0526110414         -0.4885
H496       H    1.1924159970    0.4540834945    0.0709574967         -0.4886
C449       C    1.0000000000    0.5000000000   -0.1337880160          0.5051
C450       C    1.0306052548    0.5005941091   -0.1518018928          0.5048
C451       C    1.0310907800    0.5005493014   -0.1870257443          0.5053
C452       C    1.0010813972    0.4997960443   -0.2052983218          0.5062
C453       C    0.9710265459    0.4993883951   -0.1875697548          0.5064
C454       C    0.9705584968    0.4995172801   -0.1527137276          0.5058
C455       C    1.0024694640    0.4990927388   -0.2454702540         -0.4926
N456       N    1.0617813514    0.5012382742   -0.2044160444          0.5049
Br457     Br    1.0756162193    0.5011715254   -0.1301859438          0.5039
H458       H    0.9452381356    0.4991498458   -0.1398861605           0.506
H459       H    0.9462330146    0.4988997439   -0.2013941593          -0.493
C460       C    0.9681239476    0.4992025955   -0.2669180802         -0.4924
N461       N    0.9768289350    0.5011981522   -0.3048470572          0.5063
N462       N    0.9968860325    0.5202427861   -0.2965158338          0.4892
N463       N    1.0142860425    0.5029934997   -0.2714364978          0.5043
C464       C    0.9761420139    0.5018111353   -0.3402669796          0.5063
H465       H    0.9509387719    0.5208103950   -0.2588193472          0.4883
H466       H    0.9539910910    0.4748066788   -0.2620860489         -0.4707
H467       H    1.0189029435    0.4773110751   -0.2540266675         -0.4731
C468       C    1.0000000000    0.5000000000   -0.3662119840         -0.4918
H469       H    1.0275972337    0.4975133530   -0.3597262611         -0.4897
H470       H    0.9475147942    0.5040683579   -0.3417814046          0.5043
H471       H    1.0630862588    0.4942038261   -0.2300385113         -0.4885
H472       H    1.0842798776    0.4936601225   -0.1924159970         -0.4886
C425       C    1.0000000000    0.5000000000    0.1337880160          0.5051
C426       C    0.9693947452    0.5005941091    0.1518018928          0.5048
C427       C    0.9689092200    0.5005493014    0.1870257443          0.5053
C428       C    0.9989186028    0.4997960443    0.2052983218          0.5062
C429       C    1.0289734541    0.4993883951    0.1875697548          0.5064
C430       C    1.0294415032    0.4995172801    0.1527137276          0.5058
C431       C    0.9975305360    0.4990927388    0.2454702540         -0.4926
N432       N    0.9382186486    0.5012382742    0.2044160444          0.5049
Br433     Br    0.9243837807    0.5011715254    0.1301859438          0.5039
H434       H    1.0547618644    0.4991498458    0.1398861605           0.506
H435       H    1.0537669854    0.4988997439    0.2013941593          -0.493
C436       C    1.0318760524    0.4992025955    0.2669180802         -0.4924
N437       N    1.0231710650    0.5011981522    0.3048470572          0.5063
N438       N    1.0031139675    0.5202427861    0.2965158338          0.4892
N439       N    0.9857139575    0.5029934997    0.2714364978          0.5043
C440       C    1.0238579861    0.5018111353    0.3402669796          0.5063
H441       H    1.0490612281    0.5208103950    0.2588193472          0.4883
H442       H    1.0460089090    0.4748066788    0.2620860489         -0.4707
H443       H    0.9810970565    0.4773110751    0.2540266675         -0.4731
C444       C    1.0000000000    0.5000000000    0.3662119840         -0.4918
H445       H    0.9724027663    0.4975133530    0.3597262611         -0.4897
H446       H    1.0524852058    0.5040683579    0.3417814046          0.5043
H447       H    0.9369137412    0.4942038261    0.2300385113         -0.4885
H448       H    0.9157201224    0.4936601225    0.1924159970         -0.4886
C401       C    1.0000000000   -0.1337880160    0.5000000000          0.5051
C402       C    1.0306052548   -0.1518018928    0.4994058909          0.5048
C403       C    1.0310907800   -0.1870257443    0.4994506986          0.5053
C404       C    1.0010813972   -0.2052983218    0.5002039557          0.5062
C405       C    0.9710265459   -0.1875697548    0.5006116049          0.5064
C406       C    0.9705584968   -0.1527137276    0.5004827199          0.5058
C407       C    1.0024694640   -0.2454702540    0.5009072612         -0.4926
N408       N    1.0617813514   -0.2044160444    0.4987617258          0.5049
Br409     Br    1.0756162193   -0.1301859438    0.4988284746          0.5039
H410       H    0.9452381356   -0.1398861605    0.5008501542           0.506
H411       H    0.9462330146   -0.2013941593    0.5011002561          -0.493
C412       C    0.9681239476   -0.2669180802    0.5007974045         -0.4924
N413       N    0.9768289350   -0.3048470572    0.4988018478          0.5063
N414       N    0.9968860325   -0.2965158338    0.4797572139          0.4892
N415       N    1.0142860425   -0.2714364978    0.4970065003          0.5043
C416       C    0.9761420139   -0.3402669796    0.4981888647          0.5063
H417       H    0.9509387719   -0.2588193472    0.4791896050          0.4883
H418       H    0.9539910910   -0.2620860489    0.5251933212         -0.4707
H419       H    1.0189029435   -0.2540266675    0.5226889249         -0.4731
C420       C    1.0000000000   -0.3662119840    0.5000000000         -0.4918
H421       H    1.0275972337   -0.3597262611    0.5024866470         -0.4897
H422       H    0.9475147942   -0.3417814046    0.4959316421          0.5043
H423       H    1.0630862588   -0.2300385113    0.5057961739         -0.4885
H424       H    1.0842798776   -0.1924159970    0.5063398775         -0.4886
C377       C    1.0000000000    0.1337880160    0.5000000000          0.5051
C378       C    1.0040240338    0.1518018928    0.4696546257          0.5048
C379       C    1.0040339812    0.1870257443    0.4691671388          0.5053
C380       C    0.9999186565    0.2052983218    0.4989025479          0.5062
C381       C    0.9961416564    0.1875697548    0.5287219130          0.5064
C382       C    0.9962172162    0.1527137276    0.5292014670          0.5058
C383       C    0.9993755217    0.2454702540    0.4974443391         -0.4926
N384       N    1.0081618517    0.2044160444    0.4387476296          0.5049
Br385     Br    1.0096476907    0.1301859438    0.4249926193          0.5039
H386       H    0.9930113507    0.1398861605    0.5543207450           0.506
H387       H    0.9928744457    0.2013941593    0.5533040876          -0.493
C388       C    0.9956313805    0.2669180802    0.5315853405         -0.4924
N389       N    0.9985909713    0.3048470572    0.5231591981          0.5063
N390       N    1.0197656201    0.2965158338    0.5053653934          0.4892
N391       N    1.0045773851    0.2714364978    0.4861400001          0.5043
C392       C    0.9991230170    0.3402669796    0.5239105544          0.5063
H393       H    1.0151747140    0.2588193472    0.5510862476          0.4883
H394       H    0.9698038888    0.2620860489    0.5428919341         -0.4707
H395       H    0.9795750872    0.2540266675    0.4786708762         -0.4731
C396       C    1.0000000000    0.3662119840    0.5000000000         -0.4918
H397       H    1.0006252511    0.3597262611    0.4722980184         -0.4897
H398       H    0.9981542335    0.3417814046    0.5526102795          0.5043
H399       H    1.0013182162    0.2300385113    0.4366617494         -0.4885
H400       H    1.0031557072    0.1924159970    0.4155409369         -0.4886
C353       C    0.8662119840   -0.0000000000    0.5000000000          0.5051
C354       C    0.8481981072   -0.0053102057    0.4698530880          0.5048
C355       C    0.8129742557   -0.0054476653    0.4693852768          0.5053
C356       C    0.7947016782   -0.0004083674    0.4989781126          0.5062
C357       C    0.8124302452    0.0049788258    0.5285490174          0.5064
C358       C    0.8472862724    0.0051954241    0.5289834900          0.5058
C359       C    0.7545297460   -0.0013657907    0.4977514468         -0.4926
N360       N    0.7955839556   -0.0106812107    0.4391363783          0.5049
Br361     Br    0.8698140562   -0.0134106842    0.4255732666          0.5039
H362       H    0.8601138395    0.0097104297    0.5539007617           0.506
H363       H    0.7986058407    0.0092734392    0.5529726590          -0.493
C364       C    0.7330819198    0.0053554133    0.5314330737         -0.4924
N365       N    0.6951529428    0.0056374361    0.5225067353          0.5063
N366       N    0.7034841662    0.0204635763    0.4991578423          0.4892
N367       N    0.7285635022    0.0001866301    0.4854048905          0.5043
C368       C    0.6597330204    0.0063712180    0.5230627686          0.5063
H369       H    0.7411806528    0.0298679406    0.5441359577          0.4883
H370       H    0.7379139511   -0.0158626093    0.5499990077         -0.4707
H371       H    0.7459733325   -0.0259041857    0.4858196703         -0.4731
C372       C    0.6337880160   -0.0000000000    0.5000000000         -0.4918
H373       H    0.6402737389   -0.0077540994    0.4733980327         -0.4897
H374       H    0.6582185954    0.0140985154    0.5507196236          0.5043
H375       H    0.7699614887   -0.0178352838    0.4392104094         -0.4885
H376       H    0.8075840030   -0.0224497513    0.4185180972         -0.4886
C329       C    1.1337880160   -0.0000000000    0.5000000000          0.5051
C330       C    1.1518018928    0.0042512564    0.5303143762          0.5048
C331       C    1.1870257443    0.0042648555    0.5308017750          0.5053
C332       C    1.2052983218   -0.0000731196    0.5010980307          0.5062
C333       C    1.1875697548   -0.0040734085    0.4713077982          0.5064
C334       C    1.1527137276   -0.0040014435    0.4708276916          0.5058
C335       C    1.2454702540   -0.0006053147    0.5025602675         -0.4926
N336       N    1.2044160444    0.0086205010    0.5611895062          0.5049
Br337     Br    1.1301859438    0.0102093454    0.5749329991          0.5039
H338       H    1.1398861605   -0.0073954026    0.4457331356           0.506
H339       H    1.2013941593   -0.0075246874    0.4467507901          -0.493
C340       C    1.2669180802   -0.0046051217    0.4684482738         -0.4924
N341       N    1.3048470572   -0.0015824886    0.4768520076          0.5063
N342       N    1.2965158338    0.0197248700    0.4944866810          0.4892
N343       N    1.2714364978    0.0046810902    0.5138253190          0.5043
C344       C    1.3402669796   -0.0010560867    0.4760966866          0.5063
H345       H    1.2588193472    0.0147915703    0.4488015031          0.4883
H346       H    1.2620860489   -0.0305165932    0.4573354868         -0.4707
H347       H    1.2540266675   -0.0202645503    0.5214815406         -0.4731
C348       C    1.3662119840   -0.0000000000    0.5000000000         -0.4918
H349       H    1.3597262611    0.0008327657    0.5276965201         -0.4897
H350       H    1.3417814046   -0.0022398500    0.4474050247          0.5043
H351       H    1.2300385113    0.0017926842    0.5633265976         -0.4885
H352       H    1.1924159970    0.0037883523    0.5844330516         -0.4886
C305       C    0.0000000000   -0.3662119840    0.0000000000          0.5051
C306       C   -0.0241916118   -0.3481981072   -0.0187563458          0.5048
C307       C   -0.0246077823   -0.3129742557   -0.0190104020          0.5053
C308       C   -0.0009891358   -0.2947016782   -0.0004823155          0.5062
C309       C    0.0228724020   -0.3124302452    0.0177957391          0.5064
C310       C    0.0233247735   -0.3472862724    0.0179719244          0.5058
C311       C   -0.0025224819   -0.2545297460   -0.0007473024         -0.4926
N312       N   -0.0488111609   -0.2955839556   -0.0378937895          0.5049
Br313     Br   -0.0599470653   -0.3698140562   -0.0461035189          0.5039
H314       H    0.0434131080   -0.3601138395    0.0333899178           0.506
H315       H    0.0424658006   -0.2986058407    0.0329962885          -0.493
C316       C    0.0250894110   -0.2330819198    0.0196784152         -0.4924
N317       N    0.0192996160   -0.1951529428    0.0128786118          0.5063
N318       N    0.0145880822   -0.2034841662   -0.0143755014          0.4892
N319       N   -0.0096699423   -0.2285635022   -0.0109336301          0.5043
C320       C    0.0202166716   -0.1597330204    0.0127972614          0.5063
H321       H    0.0517783756   -0.2411806528    0.0126125517          0.4883
H322       H    0.0218532969   -0.2379139511    0.0476860206         -0.4707
H323       H   -0.0287124057   -0.2459733325    0.0069069780         -0.4731
C324       C   -0.0000000000   -0.1337880160    0.0000000000         -0.4918
H325       H   -0.0236191444   -0.1402737389   -0.0144888488         -0.4897
H326       H    0.0445248698   -0.1582185954    0.0280853046          0.5043
H327       H   -0.0540592633   -0.2699614887   -0.0330313144         -0.4885
H328       H   -0.0713820121   -0.3075840030   -0.0452537309         -0.4886
C281       C    0.0000000000    0.1337880160    0.0000000000          0.5051
C282       C    0.0030868984    0.1518018928    0.0304549774          0.5048
C283       C    0.0031897093    0.1870257443    0.0309316034          0.5053
C284       C    0.0003323903    0.2052983218    0.0010490637          0.5062
C285       C   -0.0028734960    0.1875697548   -0.0288370963          0.5064
C286       C   -0.0030576758    0.1527137276   -0.0292862723          0.5058
C287       C    0.0011973551    0.2454702540    0.0023425875         -0.4926
N288       N    0.0061926804    0.2044160444    0.0614826757          0.5049
Br289     Br    0.0079209718    0.1301859438    0.0752093298          0.5039
H290       H   -0.0057347167    0.1398861605   -0.0544673992           0.506
H291       H   -0.0053669082    0.2013941593   -0.0535097708          -0.493
C292       C   -0.0030377403    0.2669180802   -0.0317409941         -0.4924
N293       N   -0.0039730874    0.3048470572   -0.0228593175          0.5063
N294       N   -0.0204702743    0.2965158338   -0.0006595864          0.4892
N295       N   -0.0012555933    0.2714364978    0.0145421985          0.5043
C296       C   -0.0046641531    0.3402669796   -0.0234676243          0.5063
H297       H   -0.0265535604    0.2588193472   -0.0462058986          0.4883
H298       H    0.0194836719    0.2620860489   -0.0487022553         -0.4707
H299       H    0.0247954767    0.2540266675    0.0160403530         -0.4731
C300       C    0.0000000000    0.3662119840    0.0000000000         -0.4918
H301       H    0.0057839801    0.3597262611    0.0270986401         -0.4897
H302       H   -0.0103441057    0.3417814046   -0.0516163524          0.5043
H303       H    0.0133329462    0.2300385113    0.0619330624         -0.4885
H304       H    0.0164187679    0.1924159970    0.0829078759         -0.4886
C257       C   -0.3662119840   -0.0000000000    0.0000000000          0.5051
C258       C   -0.3481981072   -0.0296150546    0.0077448776          0.5048
C259       C   -0.3129742557   -0.0300975716    0.0078150185          0.5053
C260       C   -0.2947016782   -0.0010990892    0.0000549628          0.5062
C261       C   -0.3124302452    0.0280245336   -0.0073797437          0.5064
C262       C   -0.3472862724    0.0285097501   -0.0073640528          0.5058
C263       C   -0.2545297460   -0.0026132603   -0.0003037209         -0.4926
N264       N   -0.2955839556   -0.0597733547    0.0156721018          0.5049
Br265     Br   -0.3698140562   -0.0732391351    0.0188471266          0.5039
H266       H   -0.3601138395    0.0530399570   -0.0136509165           0.506
H267       H   -0.2986058407    0.0520141734   -0.0136610779          -0.493
C268       C   -0.2330819198    0.0308029053   -0.0082401214         -0.4924
N269       N   -0.1951529428    0.0228073148   -0.0042614801          0.5063
N270       N   -0.2034841662    0.0077679300    0.0189506319          0.4892
N271       N   -0.2285635022   -0.0131877447    0.0062558326          0.5043
C272       C   -0.1597330204    0.0236186855   -0.0038264095          0.5063
H273       H   -0.2411806528    0.0525704177    0.0087423007          0.4883
H274       H   -0.2379139511    0.0388296003   -0.0352673402         -0.4707
H275       H   -0.2459733325   -0.0236906960   -0.0176312084         -0.4731
C276       C   -0.1337880160   -0.0000000000    0.0000000000         -0.4918
H277       H   -0.1402737389   -0.0274121470    0.0040453577         -0.4897
H278       H   -0.1582185954    0.0519784489   -0.0083360189          0.5043
H279       H   -0.2699614887   -0.0626893370    0.0091388568         -0.4885
H280       H   -0.3075840030   -0.0834209324    0.0135734985         -0.4886
C233       C    0.3662119840   -0.0000000000    0.0000000000          0.5051
C234       C    0.3481981072    0.0287181294    0.0105973406          0.5048
C235       C    0.3129742557    0.0291915011    0.0107142241          0.5053
C236       C    0.2947016782    0.0010884830    0.0001619340          0.5062
C237       C    0.3124302452   -0.0271708212   -0.0100787685          0.5064
C238       C    0.3472862724   -0.0276552537   -0.0101104929          0.5058
C239       C    0.2545297460    0.0026304254   -0.0000473074         -0.4926
N240       N    0.2955839556    0.0579591219    0.0214291600          0.5049
Br241     Br    0.3698140562    0.0710508847    0.0259028352          0.5039
H242       H    0.3601138395   -0.0514550469   -0.0187606691           0.506
H243       H    0.2986058407   -0.0504331658   -0.0186707007          -0.493
C244       C    0.2330819198   -0.0298519942   -0.0112061151         -0.4924
N245       N    0.1951529428   -0.0222827288   -0.0064663603          0.5063
N246       N    0.2034841662   -0.0095798013    0.0181023366          0.4892
N247       N    0.2285635022    0.0125144725    0.0075126579          0.5043
C248       C    0.1597330204   -0.0231326765   -0.0061125273          0.5063
H249       H    0.2411806528   -0.0531725574    0.0035715230          0.4883
H250       H    0.2379139511   -0.0352034654   -0.0388875194         -0.4707
H251       H    0.2459733325    0.0252978708   -0.0152356924         -0.4731
C252       C    0.1337880160   -0.0000000000    0.0000000000         -0.4918
H253       H    0.1402737389    0.0268866779    0.0067005426         -0.4897
H254       H    0.1582185954   -0.0509171548   -0.0133675616          0.5043
H255       H    0.2699614887    0.0614986128    0.0152115844         -0.4885
H256       H    0.3075840030    0.0816986307    0.0216477612         -0.4886
C209       C    0.0000000000    0.0000000000   -0.1337880160          0.5051
C210       C    0.0125987609   -0.0278981327   -0.1518018928          0.5048
C211       C    0.0127487788   -0.0283620693   -0.1870257443          0.5053
C212       C    0.0002383908   -0.0010743313   -0.2052983218          0.5062
C213       C   -0.0119722232    0.0263913049   -0.1875697548          0.5064
C214       C   -0.0120380756    0.0268722880   -0.1527137276          0.5058
C215       C    0.0001385530   -0.0026271998   -0.2454702540         -0.4926
N216       N    0.0254683362   -0.0563012661   -0.2044160444          0.5049
Br217     Br    0.0308552929   -0.0690444494   -0.1301859438          0.5039
H218       H   -0.0223472341    0.0500018568   -0.1398861605           0.506
H219       H   -0.0221853322    0.0489888795   -0.2013941593          -0.493
C220       C   -0.0132860814    0.0289861797   -0.2669180802         -0.4924
N221       N   -0.0080236694    0.0217704972   -0.3048470572          0.5063
N222       N    0.0173806907    0.0108341485   -0.2965158338          0.4892
N223       N    0.0083775893   -0.0119527423   -0.2714364978          0.5043
C224       C   -0.0077307370    0.0226433085   -0.3402669796          0.5063
H225       H   -0.0001920665    0.0532920233   -0.2588193472          0.4883
H226       H   -0.0412762705    0.0323696253   -0.2620860489         -0.4707
H227       H   -0.0134113021   -0.0263105599   -0.2540266675         -0.4731
C228       C    0.0000000000    0.0000000000   -0.3662119840         -0.4918
H229       H    0.0085823659   -0.0263464176   -0.3597262611         -0.4897
H230       H   -0.0169296068    0.0498461310   -0.3417814046          0.5043
H231       H    0.0195162151   -0.0602709634   -0.2300385113         -0.4885
H232       H    0.0273627098   -0.0799660799   -0.1924159970         -0.4886
C185       C   -0.0000000000   -0.0000000000    0.1337880160          0.5051
C186       C    0.0306043609   -0.0006384991    0.1518018928          0.5048
C187       C    0.0310899506   -0.0005943956    0.1870257443          0.5053
C188       C    0.0010816919    0.0002023870    0.2052983218          0.5062
C189       C   -0.0289725365    0.0006536281    0.1875697548          0.5064
C190       C   -0.0294407720    0.0005254221    0.1527137276          0.5058
C191       C    0.0024707774    0.0009036785    0.2454702540         -0.4926
N192       N    0.0617794904   -0.0013278821    0.2044160444          0.5049
Br193     Br    0.0756144405   -0.0012811998    0.1301859438          0.5039
H194       H   -0.0547605737    0.0009295813    0.1398861605           0.506
H195       H   -0.0537653330    0.0011782399    0.2013941593          -0.493
C196       C   -0.0318748623    0.0008436374    0.2669180802         -0.4924
N197       N   -0.0231727784   -0.0011645431    0.3048470572          0.5063
N198       N   -0.0031433249   -0.0202382483    0.2965158338          0.4892
N199       N    0.0142816856   -0.0030142174    0.2714364978          0.5043
C200       C   -0.0238605879   -0.0017765291    0.3402669796          0.5063
H201       H   -0.0490913604   -0.0207392134    0.2588193472          0.4883
H202       H   -0.0459723196    0.0252600272    0.2620860489         -0.4707
H203       H    0.0189358322    0.0226614838    0.2540266675         -0.4731
C204       C    0.0000000000    0.0000000000    0.3662119840         -0.4918
H205       H    0.0276008114    0.0024466167    0.3597262611         -0.4897
H206       H   -0.0524910514   -0.0039922277    0.3417814046          0.5043
H207       H    0.0630945993    0.0057046659    0.2300385113         -0.4885
H208       H    0.0842889845    0.0062176292    0.1924159970         -0.4886
loop_
_geom_bond_atom_site_label_1
_geom_bond_atom_site_label_2
_geom_bond_distance
_geom_bond_site_symmetry_2
_ccdc_geom_bond_type
Zn1          O5 1.942       .   S
Zn1          O6 1.922       .   S
Zn1         O10 1.922       .   S
Zn1         O17 1.922       .   S
Zn2          O5 1.942       .   S
Zn2          O7 1.922       .   S
Zn2          O9 1.922       .   S
Zn2         O13 1.922       .   S
Zn3          O5 1.942       .   S
Zn3          O8 1.922       .   S
Zn3         O11 1.922       .   S
Zn3         O14 1.922       .   S
Zn4          O5 1.942       .   S
Zn4         O12 1.922       .   S
Zn4         O15 1.922       .   S
Zn4         O16 1.922       .   S
O6          C18 1.304       .   A
O7          C19 1.304       .   A
O8          C20 1.304       .   A
O9          C18 1.304       .   A
O10         C20 1.304       .   A
O11         C19 1.304       .   A
O12         C21 1.304       .   A
O13         C22 1.304       .   A
O14         C21 1.304       .   A
O15         C22 1.304       .   A
O16         C23 1.304       .   A
O17         C23 1.304       .   A
C18        C185 1.540       .   S
C19        C252 1.540       .   S
C20        C324 1.540       .   S
C21        C209 1.540       .   S
C22        C281 1.540       .   S
C23        C276 1.540       .   S
Zn24        O28 1.942       .   S
Zn24        O29 1.922       .   S
Zn24        O33 1.922       .   S
Zn24        O40 1.922       .   S
Zn25        O28 1.942       .   S
Zn25        O30 1.922       .   S
Zn25        O32 1.922       .   S
Zn25        O36 1.922       .   S
Zn26        O28 1.942       .   S
Zn26        O31 1.922       .   S
Zn26        O34 1.922       .   S
Zn26        O37 1.922       .   S
Zn27        O28 1.942       .   S
Zn27        O35 1.922       .   S
Zn27        O38 1.922       .   S
Zn27        O39 1.922       .   S
O29         C41 1.304       .   A
O30         C42 1.304       .   A
O31         C43 1.304       .   A
O32         C41 1.304       .   A
O33         C43 1.304       .   A
O34         C42 1.304       .   A
O35         C44 1.304       .   A
O36         C45 1.304       .   A
O37         C44 1.304       .   A
O38         C45 1.304       .   A
O39         C46 1.304       .   A
O40         C46 1.304       .   A
C41        C401 1.540       .   S
C42        C329 1.540       .   S
C43        C204 1.540   1_655   S
C44        C377 1.540       .   S
C45        C228 1.540   1_656   S
C46        C353 1.540       .   S
Zn47        O51 1.942       .   S
Zn47        O52 1.922       .   S
Zn47        O56 1.922       .   S
Zn47        O63 1.922       .   S
Zn48        O51 1.942       .   S
Zn48        O53 1.922       .   S
Zn48        O55 1.922       .   S
Zn48        O59 1.922       .   S
Zn49        O51 1.942       .   S
Zn49        O54 1.922       .   S
Zn49        O57 1.922       .   S
Zn49        O60 1.922       .   S
Zn50        O51 1.942       .   S
Zn50        O58 1.922       .   S
Zn50        O61 1.922       .   S
Zn50        O62 1.922       .   S
O52         C64 1.304       .   A
O53         C65 1.304       .   A
O54         C66 1.304       .   A
O55         C64 1.304       .   A
O56         C66 1.304       .   A
O57         C65 1.304       .   A
O58         C67 1.304       .   A
O59         C68 1.304       .   A
O60         C67 1.304       .   A
O61         C68 1.304       .   A
O62         C69 1.304       .   A
O63         C69 1.304       .   A
C64        C305 1.540   1_665   S
C65        C516 1.540       .   S
C66        C449 1.540       .   S
C67        C300 1.540   1_655   S
C68        C425 1.540       .   S
C69        C473 1.540       .   S
Zn70        O74 1.942       .   S
Zn70        O75 1.922       .   S
Zn70        O79 1.922       .   S
Zn70        O86 1.922       .   S
Zn71        O74 1.942       .   S
Zn71        O76 1.922       .   S
Zn71        O78 1.922       .   S
Zn71        O82 1.922       .   S
Zn72        O74 1.942       .   S
Zn72        O77 1.922       .   S
Zn72        O80 1.922       .   S
Zn72        O83 1.922       .   S
Zn73        O74 1.942       .   S
Zn73        O81 1.922       .   S
Zn73        O84 1.922       .   S
Zn73        O85 1.922       .   S
O75         C87 1.304       .   A
O76         C88 1.304       .   A
O77         C89 1.304       .   A
O78         C87 1.304       .   A
O79         C89 1.304       .   A
O80         C88 1.304       .   A
O81         C90 1.304       .   A
O82         C91 1.304       .   A
O83         C90 1.304       .   A
O84         C91 1.304       .   A
O85         C92 1.304       .   A
O86         C92 1.304       .   A
C87        C396 1.540       .   S
C88        C444 1.540       .   S
C89        C545 1.540       .   S
C90        C420 1.540   1_565   S
C91        C521 1.540       .   S
C92        C468 1.540   1_556   S
Zn93        O97 1.942       .   S
Zn93        O98 1.922       .   S
Zn93       O102 1.922       .   S
Zn93       O109 1.922       .   S
Zn94        O97 1.942       .   S
Zn94        O99 1.922       .   S
Zn94       O101 1.922       .   S
Zn94       O105 1.922       .   S
Zn95        O97 1.942       .   S
Zn95       O100 1.922       .   S
Zn95       O103 1.922       .   S
Zn95       O106 1.922       .   S
Zn96        O97 1.942       .   S
Zn96       O104 1.922       .   S
Zn96       O107 1.922       .   S
Zn96       O108 1.922       .   S
O98        C110 1.304       .   A
O99        C111 1.304       .   A
O100       C112 1.304       .   A
O101       C110 1.304       .   A
O102       C112 1.304       .   A
O103       C111 1.304       .   A
O104       C113 1.304       .   A
O105       C114 1.304       .   A
O106       C113 1.304       .   A
O107       C114 1.304       .   A
O108       C115 1.304       .   A
O109       C115 1.304       .   A
C110       C233 1.540   1_565   S
C111       C569 1.540       .   S
C112       C660 1.540       .   S
C113       C257 1.540   1_665   S
C114       C617 1.540       .   S
C115       C593 1.540       .   S
Zn116      O120 1.942       .   S
Zn116      O121 1.922       .   S
Zn116      O125 1.922       .   S
Zn116      O132 1.922       .   S
Zn117      O120 1.942       .   S
Zn117      O122 1.922       .   S
Zn117      O124 1.922       .   S
Zn117      O128 1.922       .   S
Zn118      O120 1.942       .   S
Zn118      O123 1.922       .   S
Zn118      O126 1.922       .   S
Zn118      O129 1.922       .   S
Zn119      O120 1.942       .   S
Zn119      O127 1.922       .   S
Zn119      O130 1.922       .   S
Zn119      O131 1.922       .   S
O121       C133 1.304       .   A
O122       C134 1.304       .   A
O123       C135 1.304       .   A
O124       C133 1.304       .   A
O125       C135 1.304       .   A
O126       C134 1.304       .   A
O127       C136 1.304       .   A
O128       C137 1.304       .   A
O129       C136 1.304       .   A
O130       C137 1.304       .   A
O131       C138 1.304       .   A
O132       C138 1.304       .   A
C133       C348 1.540   1_465   S
C134       C588 1.540       .   S
C135       C665 1.540       .   S
C136       C372 1.540   1_565   S
C137       C708 1.540       .   S
C138       C612 1.540   1_556   S
Zn139      O143 1.942       .   S
Zn139      O144 1.922       .   S
Zn139      O148 1.922       .   S
Zn139      O155 1.922       .   S
Zn140      O143 1.942       .   S
Zn140      O145 1.922       .   S
Zn140      O147 1.922       .   S
Zn140      O151 1.922       .   S
Zn141      O143 1.942       .   S
Zn141      O146 1.922       .   S
Zn141      O149 1.922       .   S
Zn141      O152 1.922       .   S
Zn142      O143 1.942       .   S
Zn142      O150 1.922       .   S
Zn142      O153 1.922       .   S
Zn142      O154 1.922       .   S
O144       C156 1.304       .   A
O145       C157 1.304       .   A
O146       C158 1.304       .   A
O147       C156 1.304       .   A
O148       C158 1.304       .   A
O149       C157 1.304       .   A
O150       C159 1.304       .   A
O151       C160 1.304       .   A
O152       C159 1.304       .   A
O153       C160 1.304       .   A
O154       C161 1.304       .   A
O155       C161 1.304       .   A
C156       C492 1.540   1_455   S
C157       C636 1.540   1_545   S
C158       C737 1.540       .   S
C159       C497 1.540       .   S
C160       C713 1.540       .   S
C161       C641 1.540       .   S
Zn162      O166 1.942       .   S
Zn162      O167 1.922       .   S
Zn162      O171 1.922       .   S
Zn162      O178 1.922       .   S
Zn163      O166 1.942       .   S
Zn163      O168 1.922       .   S
Zn163      O170 1.922       .   S
Zn163      O174 1.922       .   S
Zn164      O166 1.942       .   S
Zn164      O169 1.922       .   S
Zn164      O172 1.922       .   S
Zn164      O175 1.922       .   S
Zn165      O166 1.942       .   S
Zn165      O173 1.922       .   S
Zn165      O176 1.922       .   S
Zn165      O177 1.922       .   S
O167       C179 1.304       .   A
O168       C180 1.304       .   A
O169       C181 1.304       .   A
O170       C179 1.304       .   A
O171       C181 1.304       .   A
O172       C180 1.304       .   A
O173       C182 1.304       .   A
O174       C183 1.304       .   A
O175       C182 1.304       .   A
O176       C183 1.304       .   A
O177       C184 1.304       .   A
O178       C184 1.304       .   A
C179       C540 1.540   1_455   S
C180       C684 1.540   1_545   S
C181       C732 1.540       .   S
C182       C564 1.540       .   S
C183       C756 1.540   1_556   S
C184       C689 1.540       .   S
C737       C738 0.032       .   A
C737       C742 0.031       .   A
C738       C739 0.031       .   A
C738      Br745 0.044       .   A
C739       C740 0.031       .   A
C739       N744 0.031       .   A
C740       C741 0.031       .   A
C740       C743 0.036       .   A
C741       C742 0.031       .   A
C741       H747 0.025       .   A
C742       H746 0.025       .   A
C743       C748 0.036       .   A
C743       N751 0.026       .   A
C743       H755 0.025       .   A
N744       H759 0.024       .   A
N744       H760 0.024       .   A
C748       N749 0.035       .   A
C748       H753 0.026       .   A
C748       H754 0.025       .   A
N749       N750 0.026       .   A
N749       C752 0.032       .   A
N750       N751 0.031       .   A
C752       C756 0.031       .   A
C752       H758 0.026       .   A
C756       H757 0.025       .   A
C713       C714 0.032       .   A
C713       C718 0.031       .   A
C714       C715 0.031       .   A
C714      Br721 0.044       .   A
C715       C716 0.031       .   A
C715       N720 0.031       .   A
C716       C717 0.031       .   A
C716       C719 0.036       .   A
C717       C718 0.031       .   A
C717       H723 0.025       .   A
C718       H722 0.025       .   A
C719       C724 0.036       .   A
C719       N727 0.026       .   A
C719       H731 0.025       .   A
N720       H735 0.024       .   A
N720       H736 0.024       .   A
C724       N725 0.035       .   A
C724       H729 0.026       .   A
C724       H730 0.025       .   A
N725       N726 0.026       .   A
N725       C728 0.032       .   A
N726       N727 0.031       .   A
C728       C732 0.031       .   A
C728       H734 0.026       .   A
C732       H733 0.025       .   A
C689       C690 0.032       .   A
C689       C694 0.031       .   A
C690       C691 0.031       .   A
C690      Br697 0.044       .   A
C691       C692 0.031       .   A
C691       N696 0.031       .   A
C692       C693 0.031       .   A
C692       C695 0.036       .   A
C693       C694 0.031       .   A
C693       H699 0.025       .   A
C694       H698 0.025       .   A
C695       C700 0.036       .   A
C695       N703 0.026       .   A
C695       H707 0.025       .   A
N696       H711 0.024       .   A
N696       H712 0.024       .   A
C700       N701 0.035       .   A
C700       H705 0.026       .   A
C700       H706 0.025       .   A
N701       N702 0.026       .   A
N701       C704 0.032       .   A
N702       N703 0.031       .   A
C704       C708 0.031       .   A
C704       H710 0.026       .   A
C708       H709 0.025       .   A
C665       C666 0.032       .   A
C665       C670 0.031       .   A
C666       C667 0.031       .   A
C666      Br673 0.044       .   A
C667       C668 0.031       .   A
C667       N672 0.031       .   A
C668       C669 0.031       .   A
C668       C671 0.036       .   A
C669       C670 0.031       .   A
C669       H675 0.025       .   A
C670       H674 0.025       .   A
C671       C676 0.036       .   A
C671       N679 0.026       .   A
C671       H683 0.025       .   A
N672       H687 0.024       .   A
N672       H688 0.024       .   A
C676       N677 0.035       .   A
C676       H681 0.026       .   A
C676       H682 0.025       .   A
N677       N678 0.026       .   A
N677       C680 0.032       .   A
N678       N679 0.031       .   A
C680       C684 0.031       .   A
C680       H686 0.026       .   A
C684       H685 0.025       .   A
C641       C642 0.032       .   A
C641       C646 0.031       .   A
C642       C643 0.031       .   A
C642      Br649 0.044       .   A
C643       C644 0.031       .   A
C643       N648 0.031       .   A
C644       C645 0.031       .   A
C644       C647 0.036       .   A
C645       C646 0.031       .   A
C645       H651 0.025       .   A
C646       H650 0.025       .   A
C647       C652 0.036       .   A
C647       N655 0.026       .   A
C647       H659 0.025       .   A
N648       H663 0.024       .   A
N648       H664 0.024       .   A
C652       N653 0.035       .   A
C652       H657 0.026       .   A
C652       H658 0.025       .   A
N653       N654 0.026       .   A
N653       C656 0.032       .   A
N654       N655 0.031       .   A
C656       C660 0.031       .   A
C656       H662 0.026       .   A
C660       H661 0.025       .   A
C617       C618 0.032       .   A
C617       C622 0.031       .   A
C618       C619 0.031       .   A
C618      Br625 0.044       .   A
C619       C620 0.031       .   A
C619       N624 0.031       .   A
C620       C621 0.031       .   A
C620       C623 0.036       .   A
C621       C622 0.031       .   A
C621       H627 0.025       .   A
C622       H626 0.025       .   A
C623       C628 0.036       .   A
C623       N631 0.026       .   A
C623       H635 0.025       .   A
N624       H639 0.024       .   A
N624       H640 0.024       .   A
C628       N629 0.035       .   A
C628       H633 0.026       .   A
C628       H634 0.025       .   A
N629       N630 0.026       .   A
N629       C632 0.032       .   A
N630       N631 0.031       .   A
C632       C636 0.031       .   A
C632       H638 0.026       .   A
C636       H637 0.025       .   A
C593       C594 0.032       .   A
C593       C598 0.031       .   A
C594       C595 0.031       .   A
C594      Br601 0.044       .   A
C595       C596 0.031       .   A
C595       N600 0.031       .   A
C596       C597 0.031       .   A
C596       C599 0.036       .   A
C597       C598 0.031       .   A
C597       H603 0.025       .   A
C598       H602 0.025       .   A
C599       C604 0.036       .   A
C599       N607 0.026       .   A
C599       H611 0.025       .   A
N600       H615 0.024       .   A
N600       H616 0.024       .   A
C604       N605 0.035       .   A
C604       H609 0.026       .   A
C604       H610 0.025       .   A
N605       N606 0.026       .   A
N605       C608 0.032       .   A
N606       N607 0.031       .   A
C608       C612 0.031       .   A
C608       H614 0.026       .   A
C612       H613 0.025       .   A
C569       C570 0.032       .   A
C569       C574 0.031       .   A
C570       C571 0.031       .   A
C570      Br577 0.044       .   A
C571       C572 0.031       .   A
C571       N576 0.031       .   A
C572       C573 0.031       .   A
C572       C575 0.036       .   A
C573       C574 0.031       .   A
C573       H579 0.025       .   A
C574       H578 0.025       .   A
C575       C580 0.036       .   A
C575       N583 0.026       .   A
C575       H587 0.025       .   A
N576       H591 0.024       .   A
N576       H592 0.024       .   A
C580       N581 0.035       .   A
C580       H585 0.026       .   A
C580       H586 0.025       .   A
N581       N582 0.026       .   A
N581       C584 0.032       .   A
N582       N583 0.031       .   A
C584       C588 0.031       .   A
C584       H590 0.026       .   A
C588       H589 0.025       .   A
C545       C546 0.032       .   A
C545       C550 0.031       .   A
C546       C547 0.031       .   A
C546      Br553 0.044       .   A
C547       C548 0.031       .   A
C547       N552 0.031       .   A
C548       C549 0.031       .   A
C548       C551 0.036       .   A
C549       C550 0.031       .   A
C549       H555 0.025       .   A
C550       H554 0.025       .   A
C551       C556 0.036       .   A
C551       N559 0.026       .   A
C551       H563 0.025       .   A
N552       H567 0.024       .   A
N552       H568 0.024       .   A
C556       N557 0.035       .   A
C556       H561 0.026       .   A
C556       H562 0.025       .   A
N557       N558 0.026       .   A
N557       C560 0.032       .   A
N558       N559 0.031       .   A
C560       C564 0.031       .   A
C560       H566 0.026       .   A
C564       H565 0.025       .   A
C521       C522 0.032       .   A
C521       C526 0.031       .   A
C522       C523 0.031       .   A
C522      Br529 0.044       .   A
C523       C524 0.031       .   A
C523       N528 0.031       .   A
C524       C525 0.031       .   A
C524       C527 0.036       .   A
C525       C526 0.031       .   A
C525       H531 0.025       .   A
C526       H530 0.025       .   A
C527       C532 0.036       .   A
C527       N535 0.026       .   A
C527       H539 0.025       .   A
N528       H543 0.024       .   A
N528       H544 0.024       .   A
C532       N533 0.035       .   A
C532       H537 0.026       .   A
C532       H538 0.025       .   A
N533       N534 0.026       .   A
N533       C536 0.032       .   A
N534       N535 0.031       .   A
C536       C540 0.031       .   A
C536       H542 0.026       .   A
C540       H541 0.025       .   A
C497       C498 0.032       .   A
C497       C502 0.031       .   A
C498       C499 0.031       .   A
C498      Br505 0.044       .   A
C499       C500 0.031       .   A
C499       N504 0.031       .   A
C500       C501 0.031       .   A
C500       C503 0.036       .   A
C501       C502 0.031       .   A
C501       H507 0.025       .   A
C502       H506 0.025       .   A
C503       C508 0.036       .   A
C503       N511 0.026       .   A
C503       H515 0.025       .   A
N504       H519 0.024       .   A
N504       H520 0.024       .   A
C508       N509 0.035       .   A
C508       H513 0.026       .   A
C508       H514 0.025       .   A
N509       N510 0.026       .   A
N509       C512 0.032       .   A
N510       N511 0.031       .   A
C512       C516 0.031       .   A
C512       H518 0.026       .   A
C516       H517 0.025       .   A
C473       C474 0.032       .   A
C473       C478 0.031       .   A
C474       C475 0.031       .   A
C474      Br481 0.044       .   A
C475       C476 0.031       .   A
C475       N480 0.031       .   A
C476       C477 0.031       .   A
C476       C479 0.036       .   A
C477       C478 0.031       .   A
C477       H483 0.025       .   A
C478       H482 0.025       .   A
C479       C484 0.036       .   A
C479       N487 0.026       .   A
C479       H491 0.025       .   A
N480       H495 0.024       .   A
N480       H496 0.024       .   A
C484       N485 0.035       .   A
C484       H489 0.026       .   A
C484       H490 0.025       .   A
N485       N486 0.026       .   A
N485       C488 0.032       .   A
N486       N487 0.031       .   A
C488       C492 0.031       .   A
C488       H494 0.026       .   A
C492       H493 0.025       .   A
C449       C450 0.032       .   A
C449       C454 0.031       .   A
C450       C451 0.031       .   A
C450      Br457 0.044       .   A
C451       C452 0.031       .   A
C451       N456 0.031       .   A
C452       C453 0.031       .   A
C452       C455 0.036       .   A
C453       C454 0.031       .   A
C453       H459 0.025       .   A
C454       H458 0.025       .   A
C455       C460 0.036       .   A
C455       N463 0.026       .   A
C455       H467 0.025       .   A
N456       H471 0.024       .   A
N456       H472 0.024       .   A
C460       N461 0.035       .   A
C460       H465 0.026       .   A
C460       H466 0.025       .   A
N461       N462 0.026       .   A
N461       C464 0.032       .   A
N462       N463 0.031       .   A
C464       C468 0.031       .   A
C464       H470 0.026       .   A
C468       H469 0.025       .   A
C425       C426 0.032       .   A
C425       C430 0.031       .   A
C426       C427 0.031       .   A
C426      Br433 0.044       .   A
C427       C428 0.031       .   A
C427       N432 0.031       .   A
C428       C429 0.031       .   A
C428       C431 0.036       .   A
C429       C430 0.031       .   A
C429       H435 0.025       .   A
C430       H434 0.025       .   A
C431       C436 0.036       .   A
C431       N439 0.026       .   A
C431       H443 0.025       .   A
N432       H447 0.024       .   A
N432       H448 0.024       .   A
C436       N437 0.035       .   A
C436       H441 0.026       .   A
C436       H442 0.025       .   A
N437       N438 0.026       .   A
N437       C440 0.032       .   A
N438       N439 0.031       .   A
C440       C444 0.031       .   A
C440       H446 0.026       .   A
C444       H445 0.025       .   A
C401       C402 0.032       .   A
C401       C406 0.031       .   A
C402       C403 0.031       .   A
C402      Br409 0.044       .   A
C403       C404 0.031       .   A
C403       N408 0.031       .   A
C404       C405 0.031       .   A
C404       C407 0.036       .   A
C405       C406 0.031       .   A
C405       H411 0.025       .   A
C406       H410 0.025       .   A
C407       C412 0.036       .   A
C407       N415 0.026       .   A
C407       H419 0.025       .   A
N408       H423 0.024       .   A
N408       H424 0.024       .   A
C412       N413 0.035       .   A
C412       H417 0.026       .   A
C412       H418 0.025       .   A
N413       N414 0.026       .   A
N413       C416 0.032       .   A
N414       N415 0.031       .   A
C416       C420 0.031       .   A
C416       H422 0.026       .   A
C420       H421 0.025       .   A
C377       C378 0.032       .   A
C377       C382 0.031       .   A
C378       C379 0.031       .   A
C378      Br385 0.044       .   A
C379       C380 0.031       .   A
C379       N384 0.031       .   A
C380       C381 0.031       .   A
C380       C383 0.036       .   A
C381       C382 0.031       .   A
C381       H387 0.025       .   A
C382       H386 0.025       .   A
C383       C388 0.036       .   A
C383       N391 0.026       .   A
C383       H395 0.025       .   A
N384       H399 0.024       .   A
N384       H400 0.024       .   A
C388       N389 0.035       .   A
C388       H393 0.026       .   A
C388       H394 0.025       .   A
N389       N390 0.026       .   A
N389       C392 0.032       .   A
N390       N391 0.031       .   A
C392       C396 0.031       .   A
C392       H398 0.026       .   A
C396       H397 0.025       .   A
C353       C354 0.032       .   A
C353       C358 0.031       .   A
C354       C355 0.031       .   A
C354      Br361 0.044       .   A
C355       C356 0.031       .   A
C355       N360 0.031       .   A
C356       C357 0.031       .   A
C356       C359 0.036       .   A
C357       C358 0.031       .   A
C357       H363 0.025       .   A
C358       H362 0.025       .   A
C359       C364 0.036       .   A
C359       N367 0.026       .   A
C359       H371 0.025       .   A
N360       H375 0.024       .   A
N360       H376 0.024       .   A
C364       N365 0.035       .   A
C364       H369 0.026       .   A
C364       H370 0.025       .   A
N365       N366 0.026       .   A
N365       C368 0.032       .   A
N366       N367 0.031       .   A
C368       C372 0.031       .   A
C368       H374 0.026       .   A
C372       H373 0.025       .   A
C329       C330 0.032       .   A
C329       C334 0.031       .   A
C330       C331 0.031       .   A
C330      Br337 0.044       .   A
C331       C332 0.031       .   A
C331       N336 0.031       .   A
C332       C333 0.031       .   A
C332       C335 0.036       .   A
C333       C334 0.031       .   A
C333       H339 0.025       .   A
C334       H338 0.025       .   A
C335       C340 0.036       .   A
C335       N343 0.026       .   A
C335       H347 0.025       .   A
N336       H351 0.024       .   A
N336       H352 0.024       .   A
C340       N341 0.035       .   A
C340       H345 0.026       .   A
C340       H346 0.025       .   A
N341       N342 0.026       .   A
N341       C344 0.032       .   A
N342       N343 0.031       .   A
C344       C348 0.031       .   A
C344       H350 0.026       .   A
C348       H349 0.025       .   A
C305       C306 0.032       .   A
C305       C310 0.031       .   A
C306       C307 0.031       .   A
C306      Br313 0.044       .   A
C307       C308 0.031       .   A
C307       N312 0.031       .   A
C308       C309 0.031       .   A
C308       C311 0.036       .   A
C309       C310 0.031       .   A
C309       H315 0.025       .   A
C310       H314 0.025       .   A
C311       C316 0.036       .   A
C311       N319 0.026       .   A
C311       H323 0.025       .   A
N312       H327 0.024       .   A
N312       H328 0.024       .   A
C316       N317 0.035       .   A
C316       H321 0.026       .   A
C316       H322 0.025       .   A
N317       N318 0.026       .   A
N317       C320 0.032       .   A
N318       N319 0.031       .   A
C320       C324 0.031       .   A
C320       H326 0.026       .   A
C324       H325 0.025       .   A
C281       C282 0.032       .   A
C281       C286 0.031       .   A
C282       C283 0.031       .   A
C282      Br289 0.044       .   A
C283       C284 0.031       .   A
C283       N288 0.031       .   A
C284       C285 0.031       .   A
C284       C287 0.036       .   A
C285       C286 0.031       .   A
C285       H291 0.025       .   A
C286       H290 0.025       .   A
C287       C292 0.036       .   A
C287       N295 0.026       .   A
C287       H299 0.025       .   A
N288       H303 0.024       .   A
N288       H304 0.024       .   A
C292       N293 0.035       .   A
C292       H297 0.026       .   A
C292       H298 0.025       .   A
N293       N294 0.026       .   A
N293       C296 0.032       .   A
N294       N295 0.031       .   A
C296       C300 0.031       .   A
C296       H302 0.026       .   A
C300       H301 0.025       .   A
C257       C258 0.032       .   A
C257       C262 0.031       .   A
C258       C259 0.031       .   A
C258      Br265 0.044       .   A
C259       C260 0.031       .   A
C259       N264 0.031       .   A
C260       C261 0.031       .   A
C260       C263 0.036       .   A
C261       C262 0.031       .   A
C261       H267 0.025       .   A
C262       H266 0.025       .   A
C263       C268 0.036       .   A
C263       N271 0.026       .   A
C263       H275 0.025       .   A
N264       H279 0.024       .   A
N264       H280 0.024       .   A
C268       N269 0.035       .   A
C268       H273 0.026       .   A
C268       H274 0.025       .   A
N269       N270 0.026       .   A
N269       C272 0.032       .   A
N270       N271 0.031       .   A
C272       C276 0.031       .   A
C272       H278 0.026       .   A
C276       H277 0.025       .   A
C233       C234 0.032       .   A
C233       C238 0.031       .   A
C234       C235 0.031       .   A
C234      Br241 0.044       .   A
C235       C236 0.031       .   A
C235       N240 0.031       .   A
C236       C237 0.031       .   A
C236       C239 0.036       .   A
C237       C238 0.031       .   A
C237       H243 0.025       .   A
C238       H242 0.025       .   A
C239       C244 0.036       .   A
C239       N247 0.026       .   A
C239       H251 0.025       .   A
N240       H255 0.024       .   A
N240       H256 0.024       .   A
C244       N245 0.035       .   A
C244       H249 0.026       .   A
C244       H250 0.025       .   A
N245       N246 0.026       .   A
N245       C248 0.032       .   A
N246       N247 0.031       .   A
C248       C252 0.031       .   A
C248       H254 0.026       .   A
C252       H253 0.025       .   A
C209       C210 0.032       .   A
C209       C214 0.031       .   A
C210       C211 0.031       .   A
C210      Br217 0.044       .   A
C211       C212 0.031       .   A
C211       N216 0.031       .   A
C212       C213 0.031       .   A
C212       C215 0.036       .   A
C213       C214 0.031       .   A
C213       H219 0.025       .   A
C214       H218 0.025       .   A
C215       C220 0.036       .   A
C215       N223 0.026       .   A
C215       H227 0.025       .   A
N216       H231 0.024       .   A
N216       H232 0.024       .   A
C220       N221 0.035       .   A
C220       H225 0.026       .   A
C220       H226 0.025       .   A
N221       N222 0.026       .   A
N221       C224 0.032       .   A
N222       N223 0.031       .   A
C224       C228 0.031       .   A
C224       H230 0.026       .   A
C228       H229 0.025       .   A
C185       C186 0.032       .   A
C185       C190 0.031       .   A
C186       C187 0.031       .   A
C186      Br193 0.044       .   A
C187       C188 0.031       .   A
C187       N192 0.031       .   A
C188       C189 0.031       .   A
C188       C191 0.036       .   A
C189       C190 0.031       .   A
C189       H195 0.025       .   A
C190       H194 0.025       .   A
C191       C196 0.036       .   A
C191       N199 0.026       .   A
C191       H203 0.025       .   A
N192       H207 0.024       .   A
N192       H208 0.024       .   A
C196       N197 0.035       .   A
C196       H201 0.026       .   A
C196       H202 0.025       .   A
N197       N198 0.026       .   A
N197       C200 0.032       .   A
N198       N199 0.031       .   A
C200       C204 0.031       .   A
C200       H206 0.026       .   A
C204       H205 0.025       .   A
