data_pcu_v1-6c_Zn_1_Ch_1-2_fer_tobacco
_audit_creation_date              2021-04-07
_audit_creation_method            'tobacco_3.0'
_symmetry_space_group_name_H-M    'P1'
_symmetry_Int_Tables_number       1
_symmetry_cell_setting            triclinic
loop_
_symmetry_equiv_pos_as_xyz
  x,y,z
_cell_length_a                    49.6701676546776
_cell_length_b                    49.6701676546776
_cell_length_c                    49.6701676546776
_cell_angle_alpha                 90.0
_cell_angle_beta                  90.0
_cell_angle_gamma                 90.0
loop_
_atom_site_label
_atom_site_type_symbol
_atom_site_fract_x
_atom_site_fract_y
_atom_site_fract_z
_atom_site_charge
Zn1       Zn   -0.0225729055   -0.0225729055    0.0225729055          1.4972
Zn2       Zn    0.0225729055    0.0225729055    0.0225729055          1.4936
Zn3       Zn    0.0225729055   -0.0225729055   -0.0225729055          1.4911
Zn4       Zn   -0.0225729055    0.0225729055   -0.0225729055          1.4948
O5         O    0.0000000000    0.0000000000    0.0000000000           -2.25
O6         O   -0.0165894346   -0.0165894346    0.0603299755         -1.1563
O7         O    0.0603299755    0.0165894346    0.0165894346         -1.1545
O8         O    0.0165894346   -0.0603299755   -0.0165894346         -1.1497
O9         O    0.0165894346    0.0165894346    0.0603299755         -1.1565
O10        O   -0.0165894346   -0.0603299755    0.0165894346         -1.1524
O11        O    0.0603299755   -0.0165894346   -0.0165894346         -1.1583
O12        O   -0.0165894346    0.0165894346   -0.0603299755         -1.1522
O13        O    0.0165894346    0.0603299755    0.0165894346         -1.1598
O14        O    0.0165894346   -0.0165894346   -0.0603299755         -1.1537
O15        O   -0.0165894346    0.0603299755   -0.0165894346         -1.1583
O16        O   -0.0603299755    0.0165894346   -0.0165894346         -1.1574
O17        O   -0.0603299755   -0.0165894346    0.0165894346         -1.1553
C18        C   -0.0000000000   -0.0000000000    0.0721318282          0.3626
C19        C    0.0721318282   -0.0000000000   -0.0000000000          0.3675
C20        C   -0.0000000000   -0.0721318282    0.0000000000          0.3571
C21        C    0.0000000000    0.0000000000   -0.0721318282          0.3608
C22        C    0.0000000000    0.0721318282   -0.0000000000          0.3722
C23        C   -0.0721318282    0.0000000000    0.0000000000          0.3627
Zn24      Zn    1.0225729055    0.0225729055    0.4774270945          1.4972
Zn25      Zn    0.9774270945    0.0225729055    0.5225729055          1.4936
Zn26      Zn    0.9774270945   -0.0225729055    0.4774270945          1.4911
Zn27      Zn    1.0225729055   -0.0225729055    0.5225729055          1.4948
O28        O    1.0000000000    0.0000000000    0.5000000000           -2.25
O29        O    1.0165894346    0.0603299755    0.4834105654         -1.1563
O30        O    0.9396700245    0.0165894346    0.5165894346         -1.1545
O31        O    0.9834105654   -0.0165894346    0.4396700245         -1.1497
O32        O    0.9834105654    0.0603299755    0.5165894346         -1.1565
O33        O    1.0165894346    0.0165894346    0.4396700245         -1.1524
O34        O    0.9396700245   -0.0165894346    0.4834105654         -1.1583
O35        O    1.0165894346   -0.0603299755    0.5165894346         -1.1522
O36        O    0.9834105654    0.0165894346    0.5603299755         -1.1598
O37        O    0.9834105654   -0.0603299755    0.4834105654         -1.1537
O38        O    1.0165894346   -0.0165894346    0.5603299755         -1.1583
O39        O    1.0603299755   -0.0165894346    0.5165894346         -1.1574
O40        O    1.0603299755    0.0165894346    0.4834105654         -1.1553
C41        C    1.0000000000    0.0721318282    0.5000000000          0.3626
C42        C    0.9278681718    0.0000000000    0.5000000000          0.3675
C43        C    1.0000000000    0.0000000000    0.4278681718          0.3571
C44        C    1.0000000000   -0.0721318282    0.5000000000          0.3608
C45        C    1.0000000000    0.0000000000    0.5721318282          0.3722
C46        C    1.0721318282    0.0000000000    0.5000000000          0.3627
Zn47      Zn    1.0225729055    0.4774270945   -0.0225729055          1.4972
Zn48      Zn    0.9774270945    0.4774270945    0.0225729055          1.4936
Zn49      Zn    1.0225729055    0.5225729055    0.0225729055          1.4911
Zn50      Zn    0.9774270945    0.5225729055   -0.0225729055          1.4948
O51        O    1.0000000000    0.5000000000    0.0000000000           -2.25
O52        O    1.0165894346    0.4396700245   -0.0165894346         -1.1563
O53        O    0.9834105654    0.4834105654    0.0603299755         -1.1545
O54        O    1.0603299755    0.5165894346    0.0165894346         -1.1497
O55        O    0.9834105654    0.4396700245    0.0165894346         -1.1565
O56        O    1.0603299755    0.4834105654   -0.0165894346         -1.1524
O57        O    1.0165894346    0.5165894346    0.0603299755         -1.1583
O58        O    0.9834105654    0.5603299755   -0.0165894346         -1.1522
O59        O    0.9396700245    0.4834105654    0.0165894346         -1.1598
O60        O    1.0165894346    0.5603299755    0.0165894346         -1.1537
O61        O    0.9396700245    0.5165894346   -0.0165894346         -1.1583
O62        O    0.9834105654    0.5165894346   -0.0603299755         -1.1574
O63        O    1.0165894346    0.4834105654   -0.0603299755         -1.1553
C64        C    1.0000000000    0.4278681718    0.0000000000          0.3626
C65        C    1.0000000000    0.5000000000    0.0721318282          0.3675
C66        C    1.0721318282    0.5000000000    0.0000000000          0.3571
C67        C    1.0000000000    0.5721318282    0.0000000000          0.3608
C68        C    0.9278681718    0.5000000000    0.0000000000          0.3722
C69        C    1.0000000000    0.5000000000   -0.0721318282          0.3627
Zn70      Zn    0.9774270945    0.4774270945    0.5225729055          1.4972
Zn71      Zn    1.0225729055    0.5225729055    0.5225729055          1.4936
Zn72      Zn    1.0225729055    0.4774270945    0.4774270945          1.4911
Zn73      Zn    0.9774270945    0.5225729055    0.4774270945          1.4948
O74        O    1.0000000000    0.5000000000    0.5000000000           -2.25
O75        O    0.9834105654    0.4834105654    0.5603299755         -1.1563
O76        O    1.0603299755    0.5165894346    0.5165894346         -1.1545
O77        O    1.0165894346    0.4396700245    0.4834105654         -1.1497
O78        O    1.0165894346    0.5165894346    0.5603299755         -1.1565
O79        O    0.9834105654    0.4396700245    0.5165894346         -1.1524
O80        O    1.0603299755    0.4834105654    0.4834105654         -1.1583
O81        O    0.9834105654    0.5165894346    0.4396700245         -1.1522
O82        O    1.0165894346    0.5603299755    0.5165894346         -1.1598
O83        O    1.0165894346    0.4834105654    0.4396700245         -1.1537
O84        O    0.9834105654    0.5603299755    0.4834105654         -1.1583
O85        O    0.9396700245    0.5165894346    0.4834105654         -1.1574
O86        O    0.9396700245    0.4834105654    0.5165894346         -1.1553
C87        C    1.0000000000    0.5000000000    0.5721318282          0.3626
C88        C    1.0721318282    0.5000000000    0.5000000000          0.3675
C89        C    1.0000000000    0.4278681718    0.5000000000          0.3571
C90        C    1.0000000000    0.5000000000    0.4278681718          0.3608
C91        C    1.0000000000    0.5721318282    0.5000000000          0.3722
C92        C    0.9278681718    0.5000000000    0.5000000000          0.3627
Zn93      Zn    0.4774270945    0.9774270945   -0.0225729055          1.4972
Zn94      Zn    0.4774270945    1.0225729055    0.0225729055          1.4936
Zn95      Zn    0.5225729055    0.9774270945    0.0225729055          1.4911
Zn96      Zn    0.5225729055    1.0225729055   -0.0225729055          1.4948
O97        O    0.5000000000    1.0000000000    0.0000000000           -2.25
O98        O    0.4396700245    0.9834105654   -0.0165894346         -1.1563
O99        O    0.4834105654    1.0165894346    0.0603299755         -1.1545
O100       O    0.5165894346    0.9396700245    0.0165894346         -1.1497
O101       O    0.4396700245    1.0165894346    0.0165894346         -1.1565
O102       O    0.4834105654    0.9396700245   -0.0165894346         -1.1524
O103       O    0.5165894346    0.9834105654    0.0603299755         -1.1583
O104       O    0.5603299755    1.0165894346   -0.0165894346         -1.1522
O105       O    0.4834105654    1.0603299755    0.0165894346         -1.1598
O106       O    0.5603299755    0.9834105654    0.0165894346         -1.1537
O107       O    0.5165894346    1.0603299755   -0.0165894346         -1.1583
O108       O    0.5165894346    1.0165894346   -0.0603299755         -1.1574
O109       O    0.4834105654    0.9834105654   -0.0603299755         -1.1553
C110       C    0.4278681718    1.0000000000    0.0000000000          0.3626
C111       C    0.5000000000    1.0000000000    0.0721318282          0.3675
C112       C    0.5000000000    0.9278681718    0.0000000000          0.3571
C113       C    0.5721318282    1.0000000000    0.0000000000          0.3608
C114       C    0.5000000000    1.0721318282    0.0000000000          0.3722
C115       C    0.5000000000    1.0000000000   -0.0721318282          0.3627
Zn116     Zn    0.4774270945    1.0225729055    0.4774270945          1.4972
Zn117     Zn    0.5225729055    1.0225729055    0.5225729055          1.4936
Zn118     Zn    0.4774270945    0.9774270945    0.5225729055          1.4911
Zn119     Zn    0.5225729055    0.9774270945    0.4774270945          1.4948
O120       O    0.5000000000    1.0000000000    0.5000000000           -2.25
O121       O    0.4834105654    1.0603299755    0.4834105654         -1.1563
O122       O    0.5165894346    1.0165894346    0.5603299755         -1.1545
O123       O    0.4396700245    0.9834105654    0.5165894346         -1.1497
O124       O    0.5165894346    1.0603299755    0.5165894346         -1.1565
O125       O    0.4396700245    1.0165894346    0.4834105654         -1.1524
O126       O    0.4834105654    0.9834105654    0.5603299755         -1.1583
O127       O    0.5165894346    0.9396700245    0.4834105654         -1.1522
O128       O    0.5603299755    1.0165894346    0.5165894346         -1.1598
O129       O    0.4834105654    0.9396700245    0.5165894346         -1.1537
O130       O    0.5603299755    0.9834105654    0.4834105654         -1.1583
O131       O    0.5165894346    0.9834105654    0.4396700245         -1.1574
O132       O    0.4834105654    1.0165894346    0.4396700245         -1.1553
C133       C    0.5000000000    1.0721318282    0.5000000000          0.3626
C134       C    0.5000000000    1.0000000000    0.5721318282          0.3675
C135       C    0.4278681718    1.0000000000    0.5000000000          0.3571
C136       C    0.5000000000    0.9278681718    0.5000000000          0.3608
C137       C    0.5721318282    1.0000000000    0.5000000000          0.3722
C138       C    0.5000000000    1.0000000000    0.4278681718          0.3627
Zn139     Zn    0.4774270945    0.4774270945    0.0225729055          1.4972
Zn140     Zn    0.4774270945    0.5225729055   -0.0225729055          1.4936
Zn141     Zn    0.5225729055    0.5225729055    0.0225729055          1.4911
Zn142     Zn    0.5225729055    0.4774270945   -0.0225729055          1.4948
O143       O    0.5000000000    0.5000000000    0.0000000000           -2.25
O144       O    0.4396700245    0.4834105654    0.0165894346         -1.1563
O145       O    0.4834105654    0.5603299755   -0.0165894346         -1.1545
O146       O    0.5165894346    0.5165894346    0.0603299755         -1.1497
O147       O    0.4396700245    0.5165894346   -0.0165894346         -1.1565
O148       O    0.4834105654    0.4834105654    0.0603299755         -1.1524
O149       O    0.5165894346    0.5603299755    0.0165894346         -1.1583
O150       O    0.5603299755    0.4834105654   -0.0165894346         -1.1522
O151       O    0.4834105654    0.5165894346   -0.0603299755         -1.1598
O152       O    0.5603299755    0.5165894346    0.0165894346         -1.1537
O153       O    0.5165894346    0.4834105654   -0.0603299755         -1.1583
O154       O    0.5165894346    0.4396700245   -0.0165894346         -1.1574
O155       O    0.4834105654    0.4396700245    0.0165894346         -1.1553
C156       C    0.4278681718    0.5000000000    0.0000000000          0.3626
C157       C    0.5000000000    0.5721318282    0.0000000000          0.3675
C158       C    0.5000000000    0.5000000000    0.0721318282          0.3571
C159       C    0.5721318282    0.5000000000    0.0000000000          0.3608
C160       C    0.5000000000    0.5000000000   -0.0721318282          0.3722
C161       C    0.5000000000    0.4278681718    0.0000000000          0.3627
Zn162     Zn    0.4774270945    0.4774270945    0.5225729055          1.4972
Zn163     Zn    0.4774270945    0.5225729055    0.4774270945          1.4936
Zn164     Zn    0.5225729055    0.5225729055    0.5225729055          1.4911
Zn165     Zn    0.5225729055    0.4774270945    0.4774270945          1.4948
O166       O    0.5000000000    0.5000000000    0.5000000000           -2.25
O167       O    0.4396700245    0.4834105654    0.5165894346         -1.1563
O168       O    0.4834105654    0.5603299755    0.4834105654         -1.1545
O169       O    0.5165894346    0.5165894346    0.5603299755         -1.1497
O170       O    0.4396700245    0.5165894346    0.4834105654         -1.1565
O171       O    0.4834105654    0.4834105654    0.5603299755         -1.1524
O172       O    0.5165894346    0.5603299755    0.5165894346         -1.1583
O173       O    0.5603299755    0.4834105654    0.4834105654         -1.1522
O174       O    0.4834105654    0.5165894346    0.4396700245         -1.1598
O175       O    0.5603299755    0.5165894346    0.5165894346         -1.1537
O176       O    0.5165894346    0.4834105654    0.4396700245         -1.1583
O177       O    0.5165894346    0.4396700245    0.4834105654         -1.1574
O178       O    0.4834105654    0.4396700245    0.5165894346         -1.1553
C179       C    0.4278681718    0.5000000000    0.5000000000          0.3626
C180       C    0.5000000000    0.5721318282    0.5000000000          0.3675
C181       C    0.5000000000    0.5000000000    0.5721318282          0.3571
C182       C    0.5721318282    0.5000000000    0.5000000000          0.3608
C183       C    0.5000000000    0.5000000000    0.4278681718          0.3722
C184       C    0.5000000000    0.4278681718    0.5000000000          0.3627
C1266      C    0.5000000000    0.5000000000   -0.1031363541         -0.4065
C1267      C    0.5241957916    0.5029975004   -0.1144489170         -0.4089
C1268      C    0.5278976919    0.5052840769   -0.1408054729         -0.4113
C1269      C    0.5062491033    0.5057763189   -0.1574745774          0.5878
C1270      C    0.4810484334    0.5063748253   -0.1460241341          0.5873
C1271      C    0.4780701618    0.5008618207   -0.1193061870         -0.4077
C1272      C    0.5095749384    0.5031092417   -0.1845932993         -0.4104
N1273      N    0.5539562803    0.5045516931   -0.1483733487         -0.4106
H1274      H    0.5422229162    0.5028045682   -0.1019461686         -0.4084
C1275      C    0.4529879049    0.4964875783   -0.1098308916         -0.4041
C1276      C    0.4582218721    0.5138622732   -0.1597451475          0.5806
C1277      C    0.4339443660    0.5105095673   -0.1489673573          0.5833
C1278      C    0.4312358782    0.5006838347   -0.1245194710          -0.408
N1279      N    0.4576788305    0.5270485249   -0.1835085029          0.5691
H1280      H    0.4159130572    0.5159038151   -0.1602268527          0.5785
H1281      H    0.4113282835    0.4973538991   -0.1160532974         -0.4053
H1282      H    0.4487657998    0.4890515009   -0.0898904557         -0.3975
H1283      H    0.5599985387    0.5131233360   -0.1659353742           0.582
H1284      H    0.5685718020    0.5080950173   -0.1344481877          0.5868
C1285      C    0.5296438492    0.5122746373   -0.2262442563          0.5814
C1286      C    0.5101992273    0.4992753534   -0.2401001964         -0.4081
C1287      C    0.4923904792    0.4858138713   -0.2249203260         -0.3967
C1288      C    0.5079687430    0.5001517089   -0.2672647387         -0.4093
H1289      H    0.4766735723    0.4731096657   -0.2331129600         -0.3863
H1290      H    0.5456102815    0.5233267749   -0.2361244620          0.5721
H1291      H    0.5445838214    0.5269373475   -0.1904967903          0.5699
H1292      H    0.4770848966    0.4757226805   -0.1878190207         -0.3878
C1293      C    0.5293451395    0.5141239262   -0.1993959538          0.5803
C1294      C    0.4924150454    0.4873589746   -0.1983093911         -0.3976
H1295      H    0.4750348582    0.5301495730   -0.1939433531          0.5665
H1296      H    0.4427896401    0.5231074041   -0.1970214324           0.572
C1297      C    0.5265153437    0.5115681515   -0.2834156663           0.581
N1298      N    0.5239163950    0.5140760101   -0.3093222939          0.5785
C1299      C    0.5030049974    0.5036028332   -0.3219080818          0.5868
C1300      C    0.4837876033    0.4917930973   -0.3069113027         -0.4032
C1301      C    0.4860979594    0.4905048448   -0.2802828899         -0.4016
H1303      H    0.5453253833    0.5192038947   -0.2755280947          0.5749
H1304      H    0.4688393377    0.4819416650   -0.2701207099         -0.3944
H1305      H    0.4656400789    0.4835575464   -0.3159203276         -0.3966
N1306      N    0.5170353164    0.4948059280   -0.3552925812         -0.4062
C1307      C    0.5207197001    0.4935390678   -0.3810723176         -0.4056
C1308      C    0.5000000000    0.5000000000   -0.3968636459         -0.4114
C1309      C    0.4776947159    0.5077483798   -0.3839910389          0.5821
C1310      C    0.4793143956    0.5091777922   -0.3570090963          0.5813
H1311      H    0.4612871130    0.5159976992   -0.3465496830          0.5756
H1312      H    0.4592662121    0.5131318758   -0.3945636951          0.5772
H1313      H    0.5401531501    0.4871910663   -0.3888955525         -0.4002
C1219      C    0.5000000000    0.5000000000    0.1031363541         -0.4065
C1220      C    0.4757731726    0.5027353557    0.1144489170         -0.4089
C1221      C    0.4720467323    0.5049817174    0.1408054729         -0.4113
C1222      C    0.4936887225    0.5057083209    0.1574745774          0.5878
C1223      C    0.5188814352    0.5065796412    0.1460241341          0.5873
C1224      C    0.5219192218    0.5010992057    0.1193061870         -0.4077
C1225      C    0.4903919589    0.5030053911    0.1845932993         -0.4104
N1226      N    0.4459976009    0.5039672389    0.1483733487         -0.4106
H1227      H    0.4577491934    0.5023472541    0.1019461686         -0.4084
C1228      C    0.5470473687    0.4969967866    0.1098308916         -0.4041
C1229      C    0.5416255916    0.5143137946    0.1597451475          0.5806
C1230      C    0.5659379745    0.5112241391    0.1489673573          0.5833
C1231      C    0.5687526873    0.5014283073    0.1245194710          -0.408
N1232      N    0.5420258331    0.5275051530    0.1835085029          0.5691
H1233      H    0.5839098227    0.5168132966    0.1602268527          0.5785
H1234      H    0.5886951685    0.4983141074    0.1160532974         -0.4053
H1235      H    0.5513497372    0.4896068580    0.0898904557         -0.3975
H1236      H    0.4398628910    0.5124729595    0.1659353742           0.582
H1237      H    0.4313445721    0.5073521123    0.1344481877          0.5868
C1238      C    0.4702249902    0.5119529623    0.2262442563          0.5814
C1239      C    0.4898092163    0.4991649683    0.2401001964         -0.4081
C1240      C    0.5077626687    0.4858970915    0.2249203260         -0.3967
C1241      C    0.4920300815    0.5000654220    0.2672647387         -0.4093
H1242      H    0.5236162035    0.4733637983    0.2331129600         -0.3863
H1243      H    0.4541398317    0.5228315827    0.2361244620          0.5721
H1244      H    0.4551271397    0.5264530572    0.1904967903          0.5699
H1245      H    0.5231766121    0.4759722065    0.1878190207         -0.3878
C1246      C    0.4705036601    0.5138053770    0.1993959538          0.5803
C1247      C    0.5077213750    0.4874418383    0.1983093911         -0.3976
H1248      H    0.5246372475    0.5304181047    0.1939433531          0.5665
H1249      H    0.5569568215    0.5237254692    0.1970214324           0.572
C1250      C    0.4733609615    0.5112803904    0.2834156663           0.581
N1251      N    0.4759326051    0.5138162410    0.3093222939          0.5785
C1252      C    0.4969561706    0.5035700868    0.3219080818          0.5868
C1253      C    0.5163003030    0.4919691108    0.3069113027         -0.4032
C1254      C    0.5140040302    0.4906559194    0.2802828899         -0.4016
H1256      H    0.4544693519    0.5187120288    0.2755280947          0.5749
H1257      H    0.5313543544    0.4822801015    0.2701207099         -0.3944
H1258      H    0.5345359305    0.4839305268    0.3159203276         -0.3966
N1259      N    0.4830219186    0.4946217901    0.3552925812         -0.4062
C1260      C    0.4793514672    0.4933151132    0.3810723176         -0.4056
C1261      C    0.5000000000    0.5000000000    0.3968636459         -0.4114
C1262      C    0.5222200845    0.5079894261    0.3839910389          0.5821
C1263      C    0.5205850235    0.5094012184    0.3570090963          0.5813
H1264      H    0.5385374099    0.5164159080    0.3465496830          0.5756
H1265      H    0.5405892208    0.5135721329    0.3945636951          0.5772
H1266      H    0.4599878864    0.4867570769    0.3888955525         -0.4002
C1172      C    0.5000000000    0.6031363541    0.5000000000         -0.4065
C1173      C    0.5194377917    0.6144489170    0.5147171190         -0.4089
C1174      C    0.5214958491    0.6408054729    0.5185507723         -0.4113
C1175      C    0.5025139787    0.6574745774    0.5081300100          0.5878
C1176      C    0.4804048044    0.6460241341    0.4960214847          0.5873
C1177      C    0.4805895561    0.6193061870    0.4897581639         -0.4077
C1178      C    0.5067285474    0.6845932993    0.5074882228         -0.4104
N1179      N    0.5444145655    0.6483733487    0.5309732863         -0.4106
H1180      H    0.5351355898    0.6019461686    0.5235824212         -0.4084
C1181      C    0.4610743945    0.6098308916    0.4734054248         -0.4041
C1182      C    0.4568986240    0.6597451475    0.4910643425          0.5806
C1183      C    0.4375680858    0.6489673573    0.4759988777          0.5833
C1184      C    0.4401471550    0.6245194710    0.4661383843          -0.408
N1185      N    0.4498218516    0.6835085029    0.5022039754          0.5691
H1186      H    0.4192606110    0.6602268527    0.4716328297          0.5785
H1187      H    0.4245870404    0.6160532974    0.4532821162         -0.4053
H1188      H    0.4611462332    0.5898904557    0.4648546203         -0.3975
H1189      H    0.5453489724    0.6659353742    0.5414188036           0.582
H1190      H    0.5552878700    0.6344481877    0.5413626977          0.5868
C1191      C    0.5195044831    0.7262442563    0.5254754716          0.5814
C1192      C    0.5091897458    0.7401001964    0.5044830707         -0.4081
C1193      C    0.5005223139    0.7249203260    0.4839103064         -0.3967
C1194      C    0.5068203407    0.7672647387    0.5041239341         -0.4093
H1195      H    0.4932857905    0.7331129600    0.4650409998         -0.3863
H1196      H    0.5277847007    0.7361244620    0.5430400583          0.5721
H1197      H    0.5250873427    0.6904967903    0.5456504442          0.5699
H1198      H    0.4923325418    0.6878190207    0.4675084582         -0.3878
C1199      C    0.5183194085    0.6993959538    0.5269262284          0.5803
C1200      C    0.4997694190    0.6983093911    0.4852597866         -0.3976
H1201      H    0.4632884566    0.6939433531    0.5135837269          0.5665
H1202      H    0.4389110184    0.6970214324    0.4913331823           0.572
C1203      C    0.5171509710    0.7834156663    0.5232965614           0.581
N1204      N    0.5136452428    0.8093222939    0.5241647545          0.5785
C1205      C    0.5007954455    0.8219080818    0.5046236007          0.5868
C1206      C    0.4900813484    0.8069113027    0.4847745145         -0.4032
C1207      C    0.4927262525    0.7802828899    0.4848172038         -0.4016
H1209      H    0.5296038613    0.7755280947    0.5393292682          0.5749
H1210      H    0.4820806795    0.7701207099    0.4687591887         -0.3944
H1211      H    0.4785023419    0.8159203276    0.4685546640         -0.3966
N1212      N    0.5173452220    0.8552925812    0.5040402554         -0.4062
C1213      C    0.5211685261    0.8810723176    0.5047898979         -0.4056
C1214      C    0.5000000000    0.8968636459    0.5000000000         -0.4114
C1215      C    0.4768142094    0.8839910389    0.4955298545          0.5821
C1216      C    0.4774997317    0.8570090963    0.4975784251          0.5813
H1217      H    0.4584814322    0.8465496830    0.4944481960          0.5756
H1218      H    0.4581683790    0.8945636951    0.4909554918          0.5772
H1219      H    0.5411673160    0.8888955525    0.5090330690         -0.4002
C1125      C    0.5000000000    1.3968636459    0.5000000000         -0.4065
C1126      C    0.4758052873    1.3855510830    0.4969938035         -0.4089
C1127      C    0.4716568453    1.3591945271    0.4983064062         -0.4113
C1128      C    0.4925287819    1.3425254226    0.5040740706          0.5878
C1129      C    0.5168191364    1.3539758659    0.5108128130          0.5873
C1130      C    0.5210543437    1.3806938130    0.5061947679         -0.4077
C1131      C    0.4899555459    1.3154067007    0.5006751094         -0.4104
N1132      N    0.4465672995    1.3516266513    0.4912281928         -0.4106
H1133      H    0.4583718725    1.3980538314    0.4924013648         -0.4084
C1134      C    0.5464450847    1.3901691084    0.5080825926         -0.4041
C1135      C    0.5371238863    1.3402548525    0.5236514620          0.5806
C1136      C    0.5614846388    1.3510326427    0.5263331914          0.5833
C1137      C    0.5665121594    1.3754805290    0.5174672473          -0.408
N1138      N    0.5344280898    1.3164914971    0.5365706265          0.5691
H1139      H    0.5776510460    1.3397731473    0.5359702701          0.5785
H1140      H    0.5866299269    1.3839467026    0.5191031650         -0.4053
H1141      H    0.5523563624    1.4101095443    0.5019037404         -0.3975
H1142      H    0.4386135511    1.3340646258    0.4980633838           0.582
H1143      H    0.4315290086    1.3655518123    0.4910924376          0.5868
C1144      C    0.4682553200    1.2737557437    0.5046583057          0.5814
C1145      C    0.4902870864    1.2598998036    0.4968049005         -0.4081
C1146      C    0.5108455260    1.2750796740    0.4881035459         -0.3967
C1147      C    0.4922357867    1.2327352613    0.4981997577         -0.4093
H1148      H    0.5291904882    1.2668870400    0.4796253170         -0.3863
H1149      H    0.4500721199    1.2638755380    0.5114735780          0.5721
H1150      H    0.4501851297    1.3095032097    0.5152255220          0.5699
H1151      H    0.5281530825    1.3121809793    0.4820585912         -0.3878
C1152      C    0.4680930556    1.3006040462    0.5065245231          0.5803
C1153      C    0.5104441219    1.3016906089    0.4895958001         -0.3976
H1154      H    0.5168404627    1.3060566469    0.5353362968          0.5665
H1155      H    0.5498289631    1.3029785676    0.5363875232           0.572
C1156      C    0.4714616194    1.2165843337    0.5047377643           0.581
N1157      N    0.4733689160    1.1906777061    0.5078047023          0.5785
C1158      C    0.4962056729    1.1780919182    0.5027592569          0.5868
C1159      C    0.5177264065    1.1930886973    0.4960038055         -0.4032
C1160      C    0.5158009129    1.2197171101    0.4941900209         -0.4016
H1162      H    0.4513559040    1.2244719053    0.5075453206          0.5749
H1163      H    0.5346288888    1.2298792901    0.4901040211         -0.3944
H1164      H    0.5373362707    1.1840796724    0.4924527257         -0.3966
N1165      N    0.4847504702    1.1447074188    0.4908004224         -0.4062
C1166      C    0.4814873801    1.1189276824    0.4886716054         -0.4056
C1167      C    0.5000000000    1.1031363541    0.5000000000         -0.4114
C1168      C    0.5197355123    1.1160089611    0.5129642834          0.5821
C1169      C    0.5178156286    1.1429909037    0.5139545504          0.5813
H1170      H    0.5336297380    1.1534503170    0.5249730800          0.5756
H1171      H    0.5362896995    1.1054363049    0.5226880002          0.5772
H1172      H    0.4641944155    1.1111044475    0.4777670433         -0.4002
C1078      C    0.5000000000    0.6031363541    0.0000000000         -0.4065
C1079      C    0.4847850305    0.6144489170   -0.0190506178         -0.4089
C1080      C    0.4837344232    0.6408054729   -0.0232730250         -0.4113
C1081      C    0.4995655271    0.6574745774   -0.0084987284          0.5878
C1082      C    0.5180120006    0.6460241341    0.0086814808          0.5873
C1083      C    0.5162905412    0.6193061870    0.0147064206         -0.4077
C1084      C    0.4953227040    0.6845932993   -0.0089145798         -0.4104
N1085      N    0.4645806607    0.6483733487   -0.0409569102         -0.4106
H1086      H    0.4717538175    0.6019461686   -0.0315086247         -0.4084
C1087      C    0.5311777123    0.6098308916    0.0353613412         -0.4041
C1088      C    0.5395735484    0.6597451475    0.0192745650          0.5806
C1089      C    0.5545987842    0.6489673573    0.0386363889          0.5833
C1090      C    0.5496709074    0.6245194710    0.0475581016          -0.408
N1091      N    0.5491756170    0.6835085029    0.0102207034          0.5691
H1092      H    0.5712672871    0.6602268527    0.0473763556          0.5785
H1093      H    0.5615858670    0.6160532974    0.0638502634         -0.4053
H1094      H    0.5290023759    0.5898904557    0.0436311254         -0.3975
H1095      H    0.4662473291    0.6659353742   -0.0513108546           0.582
H1096      H    0.4566006919    0.6344481877   -0.0537040166          0.5868
C1097      C    0.4873697308    0.7262442563   -0.0294940811          0.5814
C1098      C    0.4921972556    0.7401001964   -0.0066080655         -0.4081
C1099      C    0.4955315442    0.7249203260    0.0154655732         -0.3967
C1100      C    0.4944052522    0.7672647387   -0.0056765022         -0.4093
H1101      H    0.4978984817    0.7331129600    0.0355358401         -0.3863
H1102      H    0.4836699420    0.7361244620   -0.0485568266          0.5721
H1103      H    0.4869270627    0.6904967903   -0.0504225756          0.5699
H1104      H    0.4994300074    0.6878190207    0.0333791149         -0.3878
C1105      C    0.4888755716    0.6993959538   -0.0306083256          0.5803
C1106      C    0.4965935743    0.6983093911    0.0143430583         -0.3976
H1107      H    0.5389260905    0.6939433531   -0.0041248674          0.5665
H1108      H    0.5570734143    0.6970214324    0.0234436087           0.572
C1109      C    0.4891141889    0.7834156663   -0.0268026994           0.581
N1110      N    0.4927257552    0.8093222939   -0.0267808397          0.5785
C1111      C    0.5003676528    0.8219080818   -0.0046770982          0.5868
C1112      C    0.5058637899    0.8069113027    0.0171991577         -0.4032
C1113      C    0.5033108505    0.7802828899    0.0165064525         -0.4016
H1115      H    0.4809929897    0.7755280947   -0.0454082977          0.5749
H1116      H    0.5096741580    0.7701207099    0.0346915120         -0.3944
H1117      H    0.5130919316    0.8159203276    0.0357709350         -0.3966
N1118      N    0.4841838872    0.8552925812   -0.0081872440         -0.4062
C1119      C    0.4806629310    0.8810723176   -0.0098553225         -0.4056
C1120      C    0.5000000000    0.8968636459    0.0000000000         -0.4114
C1121      C    0.5213709519    0.8839910389    0.0100421861          0.5821
C1122      C    0.5212110191    0.8570090963    0.0078878872          0.5813
H1123      H    0.5388727875    0.8465496830    0.0156051398          0.5756
H1124      H    0.5383160912    0.8945636951    0.0190673752          0.5772
H1125      H    0.4623249389    0.8888955525   -0.0188926974         -0.4002
C1031      C    0.5000000000    1.3968636459    0.0000000000         -0.4065
C1032      C    0.4898815209    1.3855510830   -0.0221819232         -0.4089
C1033      C    0.4865896563    1.3591945271   -0.0250272924         -0.4113
C1034      C    0.4926149532    1.3425254226   -0.0042282662          0.5878
C1035      C    0.4996045522    1.3539758659    0.0199910954          0.5873
C1036      C    0.5057571214    1.3806938130    0.0211781985         -0.4077
C1037      C    0.4941613769    1.3154067007   -0.0082010554         -0.4104
N1038      N    0.4794703807    1.3516266513   -0.0501052175         -0.4106
H1039      H    0.4846571892    1.3980538314   -0.0394365112         -0.4084
C1040      C    0.5174548743    1.3901691084    0.0437927113         -0.4041
C1041      C    0.4993102846    1.3402548525    0.0440124855          0.5806
C1042      C    0.5097921220    1.3510326427    0.0661657927          0.5833
C1043      C    0.5199778148    1.3754805290    0.0658016640          -0.408
N1044      N    0.4868943768    1.3164914971    0.0484865623          0.5691
H1045      H    0.5100559919    1.3397731473    0.0849848357          0.5785
H1046      H    0.5291268996    1.3839467026    0.0837931911         -0.4053
H1047      H    0.5258150965    1.4101095443    0.0455894034         -0.3975
H1048      H    0.4694808326    1.3340646258   -0.0532975329           0.582
H1049      H    0.4717054292    1.3655518123   -0.0629844314          0.5868
C1050      C    0.4793972455    1.2737557437   -0.0245957522          0.5814
C1051      C    0.4976313623    1.2598998036   -0.0099468038         -0.4081
C1052      C    0.5158156022    1.2750796740    0.0030029617         -0.3967
C1053      C    0.4974645510    1.2327352613   -0.0075561484         -0.4093
H1054      H    0.5326498696    1.2668870400    0.0141844396         -0.3863
H1055      H    0.4640640828    1.2638755380   -0.0365109033          0.5721
H1056      H    0.4609277828    1.3095032097   -0.0344485075          0.5699
H1057      H    0.5300338205    1.3121809793    0.0145760020         -0.3878
C1058      C    0.4777227609    1.3006040462   -0.0237559913          0.5803
C1059      C    0.5143343039    1.3016906089    0.0034430786         -0.3976
H1060      H    0.4787291399    1.3060566469    0.0328603951          0.5665
H1061      H    0.4951209047    1.3029785676    0.0615074941           0.572
C1062      C    0.4810097802    1.2165843337   -0.0218233163           0.581
N1063      N    0.4793971651    1.1906777061   -0.0185916972          0.5785
C1064      C    0.4956615921    1.1780919182   -0.0017856746          0.5868
C1065      C    0.5126927860    1.1930886973    0.0130033934         -0.4032
C1066      C    0.5132285578    1.2197171101    0.0104129709         -0.4016
H1068      H    0.4680825159    1.2244719053   -0.0374760477          0.5749
H1069      H    0.5265750904    1.2298792901    0.0243075072         -0.3944
H1070      H    0.5259934646    1.1840796724    0.0278441782         -0.3966
N1071      N    0.4998439864    1.1447074188   -0.0178088755         -0.4062
C1072      C    0.4999471247    1.1189276824   -0.0217036131         -0.4056
C1073      C    0.5000000000    1.1031363541    0.0000000000         -0.4114
C1074      C    0.4993004302    1.1160089611    0.0236024085          0.5821
C1075      C    0.4974509382    1.1429909037    0.0224861820          0.5813
H1076      H    0.4963536139    1.1534503170    0.0417291010          0.5756
H1077      H    0.4996937204    1.1054363049    0.0427971241          0.5772
H1078      H    0.5001724129    1.1111044475   -0.0421463464         -0.4002
C984       C    0.5000000000    1.0000000000   -0.1031363541         -0.4065
C985       C    0.4758251208    0.9968382670   -0.1144489170         -0.4089
C986       C    0.4721388329    0.9945266054   -0.1408054729         -0.4113
C987       C    0.4937902649    0.9941813797   -0.1574745774          0.5878
C988       C    0.5189944179    0.9937540124   -0.1460241341          0.5873
C989       C    0.5219351848    0.9992871139   -0.1193061870         -0.4077
C990       C    0.4904463956    0.9968258113   -0.1845932993         -0.4104
N991       N    0.4460758721    0.9950820213   -0.1483733487         -0.4106
H992       H    0.4577971017    0.9969087814   -0.1019461686         -0.4084
C993       C    0.5469871601    1.0038315767   -0.1098308916         -0.4041
C994       C    0.5418712966    0.9864217411   -0.1597451475          0.5806
C995       C    0.5661254763    0.9899392263   -0.1489673573          0.5833
C996       C    0.5687671800    0.9997831244   -0.1245194710          -0.408
N997       N    0.5425038669    0.9732394809   -0.1835085029          0.5691
H998       H    0.5841929991    0.9846675446   -0.1602268527          0.5785
H999       H    0.5886517037    1.0032481659   -0.1160532974         -0.4053
H1000      H    0.5511586731    1.0112961529   -0.0898904557         -0.3975
H1001      H    0.4400919587    0.9864695460   -0.1659353742           0.582
H1002      H    0.4314847482    0.9914395320   -0.1344481877          0.5868
C1003      C    0.4704401852    0.9875243489   -0.2262442563          0.5814
C1004      C    0.4897960871    1.0006553720   -0.2401001964         -0.4081
C1005      C    0.5075130143    1.0142374741   -0.2249203260         -0.3967
C1006      C    0.4920324709    0.9997941828   -0.2672647387         -0.4093
H1007      H    0.5231432909    1.0270481126   -0.2331129600         -0.3863
H1008      H    0.4545491707    0.9763640460   -0.2361244620          0.5721
H1009      H    0.4556001247    0.9727605268   -0.1904967903          0.5699
H1010      H    0.5227497198    1.0244323649   -0.1878190207         -0.3878
C1011      C    0.4707514457    0.9856771310   -0.1993959538          0.5803
C1012      C    0.5074989407    1.0126922396   -0.1983093911         -0.3976
H1013      H    0.5251692971    0.9700206481   -0.1939433531          0.5665
H1014      H    0.5573659519    0.9772816160   -0.1970214324           0.572
C1015      C    0.4735638213    0.9882520626   -0.2834156663           0.581
N1016      N    0.4761797397    0.9857619099   -0.3093222939          0.5785
C1017      C    0.4970195369    0.9963768444   -0.3219080818          0.5868
C1018      C    0.5161562939    1.0083168039   -0.3069113027         -0.4032
C1019      C    0.5138372431    1.0095893382   -0.2802828899         -0.4016
H1021      H    0.4548060659    0.9804887657   -0.2755280947          0.5749
H1022      H    0.5310373186    1.0182695154   -0.2701207099         -0.3944
H1023      H    0.5342474763    1.0166753958   -0.3159203276         -0.3966
N1024      N    0.4829298060    1.0050782738   -0.3552925812         -0.4062
C1025      C    0.4792369046    1.0063200860   -0.3810723176         -0.4056
C1026      C    0.5000000000    1.0000000000   -0.3968636459         -0.4114
C1027      C    0.5223573852    0.9924032630   -0.3839910389          0.5821
C1028      C    0.5207474493    0.9909628851   -0.3570090963          0.5813
H1029      H    0.5388206269    0.9842655497   -0.3465496830          0.5756
H1030      H    0.5408220209    0.9871450301   -0.3945636951          0.5772
H1031      H    0.4597607965    1.0125359781   -0.3888955525         -0.4002
C937       C    0.5000000000    1.0000000000    0.1031363541         -0.4065
C938       C    0.5242268274    0.9972646443    0.1144489170         -0.4089
C939       C    0.5279532677    0.9950182826    0.1408054729         -0.4113
C940       C    0.5063112775    0.9942916791    0.1574745774          0.5878
C941       C    0.4811185648    0.9934203588    0.1460241341          0.5873
C942       C    0.4780807782    0.9989007943    0.1193061870         -0.4077
C943       C    0.5096080411    0.9969946089    0.1845932993         -0.4104
N944       N    0.5540023991    0.9960327611    0.1483733487         -0.4106
H945       H    0.5422508066    0.9976527459    0.1019461686         -0.4084
C946       C    0.4529526313    1.0030032134    0.1098308916         -0.4041
C947       C    0.4583744084    0.9856862054    0.1597451475          0.5806
C948       C    0.4340620255    0.9887758609    0.1489673573          0.5833
C949       C    0.4312473127    0.9985716927    0.1245194710          -0.408
N950       N    0.4579741669    0.9724948470    0.1835085029          0.5691
H951       H    0.4160901773    0.9831867034    0.1602268527          0.5785
H952       H    0.4113048315    1.0016858926    0.1160532974         -0.4053
H953       H    0.4486502628    1.0103931420    0.0898904557         -0.3975
H954       H    0.5601371090    0.9875270405    0.1659353742           0.582
H955       H    0.5686554279    0.9926478877    0.1344481877          0.5868
C956       C    0.5297750098    0.9880470377    0.2262442563          0.5814
C957       C    0.5101907837    1.0008350317    0.2401001964         -0.4081
C958       C    0.4922373313    1.0141029085    0.2249203260         -0.3967
C959       C    0.5079699185    0.9999345780    0.2672647387         -0.4093
H960       H    0.4763837965    1.0266362017    0.2331129600         -0.3863
H961       H    0.5458601683    0.9771684173    0.2361244620          0.5721
H962       H    0.5448728603    0.9735469428    0.1904967903          0.5699
H963       H    0.4768233879    1.0240277935    0.1878190207         -0.3878
C964       C    0.5294963399    0.9861946230    0.1993959538          0.5803
C965       C    0.4922786250    1.0125581617    0.1983093911         -0.3976
H966       H    0.4753627525    0.9695818953    0.1939433531          0.5665
H967       H    0.4430431785    0.9762745308    0.1970214324           0.572
C968       C    0.5266390385    0.9887196096    0.2834156663           0.581
N969       N    0.5240673949    0.9861837590    0.3093222939          0.5785
C970       C    0.5030438294    0.9964299132    0.3219080818          0.5868
C971       C    0.4836996970    1.0080308892    0.3069113027         -0.4032
C972       C    0.4859959698    1.0093440806    0.2802828899         -0.4016
H974       H    0.5455306481    0.9812879712    0.2755280947          0.5749
H975       H    0.4686456456    1.0177198985    0.2701207099         -0.3944
H976       H    0.4654640695    1.0160694732    0.3159203276         -0.3966
N977       N    0.5169780814    1.0053782099    0.3552925812         -0.4062
C978       C    0.5206485328    1.0066848868    0.3810723176         -0.4056
C979       C    0.5000000000    1.0000000000    0.3968636459         -0.4114
C980       C    0.4777799155    0.9920105739    0.3839910389          0.5821
C981       C    0.4794149765    0.9905987816    0.3570090963          0.5813
H982       H    0.4614625901    0.9835840920    0.3465496830          0.5756
H983       H    0.4594107792    0.9864278671    0.3945636951          0.5772
H984       H    0.5400121136    1.0132429231    0.3888955525         -0.4002
C890       C    0.6031363541    0.5000000000    0.5000000000         -0.4065
C891       C    0.6144489170    0.4793546346    0.5129688175         -0.4089
C892       C    0.6408054729    0.4769706042    0.5166087209         -0.4113
C893       C    0.6574745774    0.4967877041    0.5078802479          0.5878
C894       C    0.6460241341    0.5198671818    0.4977427097          0.5873
C895       C    0.6193061870    0.5202284671    0.4914870887         -0.4077
C896       C    0.6845932993    0.4926450200    0.5068739435         -0.4104
N897       N    0.6483733487    0.4530573203    0.5269885701         -0.4106
H898       H    0.6019461686    0.4629445663    0.5204336754         -0.4084
C899       C    0.6098308916    0.5410933188    0.4768955990         -0.4041
C900       C    0.6597451475    0.5437157032    0.4948510309          0.5806
C901       C    0.6489673573    0.5642845521    0.4815258521          0.5833
C902       C    0.6245194710    0.5625738115    0.4714782507          -0.408
N903       N    0.6835085029    0.5497956941    0.5065645206          0.5691
H904       H    0.6602268527    0.5829026452    0.4787703815          0.5785
H905       H    0.6160532974    0.5791942051    0.4600255953         -0.4053
H906       H    0.5898904557    0.5417662550    0.4683710125         -0.3975
H907       H    0.6659353742    0.4512169908    0.5373130621           0.582
H908       H    0.6344481877    0.4413207225    0.5363918086          0.5868
C909       C    0.7262442563    0.4783514874    0.5236805072          0.5814
C910       C    0.7401001964    0.4904548212    0.5036659121         -0.4081
C911       C    0.7249203260    0.5008805684    0.4839259323         -0.3967
C912       C    0.7672647387    0.4928464974    0.5035144389         -0.4093
H913       H    0.7331129600    0.5097325245    0.4657583547         -0.3863
H914       H    0.7361244620    0.4685734003    0.5404574472          0.5721
H915       H    0.6904967903    0.4710332334    0.5432927737          0.5699
H916       H    0.6878190207    0.5104673161    0.4682994401         -0.3878
C917       C    0.6993959538    0.4794057470    0.5252289367          0.5803
C918       C    0.6983093911    0.5015131074    0.4853358408         -0.3976
H919       H    0.6939433531    0.5353894173    0.5167285445          0.5665
H920       H    0.6970214324    0.5616115911    0.4966849961           0.572
C921       C    0.7834156663    0.4808857753    0.5217147874           0.581
N922       N    0.8093222939    0.4843025981    0.5228849204          0.5785
C923       C    0.8219080818    0.4988050072    0.5045367840          0.5868
C924       C    0.8069113027    0.5112066379    0.4856959333         -0.4032
C925       C    0.7802828899    0.5085680614    0.4855081737         -0.4016
H927       H    0.7755280947    0.4670842396    0.5366023586          0.5749
H928       H    0.7701207099    0.5205713469    0.4704380308         -0.3944
H929       H    0.8159203276    0.5241539029    0.4705458418         -0.3966
N930       N    0.8552925812    0.4823688716    0.5025146968         -0.4062
C931       C    0.8810723176    0.4784948170    0.5029286047         -0.4056
C932       C    0.8968636459    0.5000000000    0.5000000000         -0.4114
C933       C    0.8839910389    0.5234869464    0.4975655728          0.5821
C934       C    0.8570090963    0.5226256623    0.4995466765          0.5813
H935       H    0.8465496830    0.5418442803    0.4980842218          0.5756
H936       H    0.8945636951    0.5424602476    0.4946320385          0.5772
H937       H    0.8888955525    0.4582025305    0.5054144055         -0.4002
C843       C    1.1031363541    0.5000000000    0.5000000000         -0.4065
C844       C    1.1144489170    0.5207102180    0.4871350006         -0.4089
C845       C    1.1408054729    0.5231124933    0.4835071126         -0.4113
C846       C    1.1574745774    0.5032518199    0.4921359795          0.5878
C847       C    1.1460241341    0.4801217353    0.5021575142          0.5873
C848       C    1.1193061870    0.4797290469    0.5084112425         -0.4077
C849       C    1.1845932993    0.5073893995    0.4931630704         -0.4104
N850       N    1.1483733487    0.5470775901    0.4732474562         -0.4106
H851       H    1.1019461686    0.5371575585    0.4797526271         -0.4084
C852       C    1.1098308916    0.4587911984    0.5228977917         -0.4041
C853       C    1.1597451475    0.4562589962    0.5049294198          0.5806
C854       C    1.1489673573    0.4356235046    0.5181511602          0.5833
C855       C    1.1245194710    0.4372837774    0.5282072241          -0.408
N856       N    1.1835085029    0.4502378921    0.4931855518          0.5691
H857       H    1.1602268527    0.4169918117    0.5208131199          0.5785
H858       H    1.1160532974    0.4206060927    0.5395762888         -0.4053
H859       H    1.0898904557    0.4580754711    0.5314188921         -0.3975
H860       H    1.1659353742    0.5489697329    0.4629323341           0.582
H861       H    1.1344481877    0.5588612510    0.4639032624          0.5868
C862       C    1.2262442563    0.5217671330    0.4764284824          0.5814
C863       C    1.2401001964    0.5095634640    0.4963820578         -0.4081
C864       C    1.2249203260    0.4990387393    0.5160694440         -0.3967
C865       C    1.2672647387    0.5071710574    0.4965215211         -0.4093
H866       H    1.2331129600    0.4900956805    0.5341923495         -0.3863
H867       H    1.2361244620    0.5316293292    0.4597008469          0.5721
H868       H    1.1904967903    0.5291837625    0.4568532060          0.5699
H869       H    1.1878190207    0.4893736561    0.5316476069         -0.3878
C870       C    1.1993959538    0.5207206609    0.4748747793          0.5803
C871       C    1.1983093911    0.4984132870    0.5146563775         -0.3976
H872       H    1.1939433531    0.4646950181    0.4830939860          0.5665
H873       H    1.1970214324    0.4383725418    0.5030056275           0.572
C874       C    1.2834156663    0.5192230077    0.4783814535           0.581
N875       N    1.3093222939    0.5158121029    0.4771941803          0.5785
C876       C    1.3219080818    0.5012177556    0.4954692729          0.5868
C877       C    1.3069113027    0.4887216866    0.5142476210         -0.4032
C878       C    1.2802828899    0.4913592872    0.5144486258         -0.4016
H880       H    1.2755280947    0.5330991158    0.4635633636          0.5749
H881       H    1.2701207099    0.4792804899    0.5294583136         -0.3944
H882       H    1.3159203276    0.4756985205    0.5293325170         -0.3966
N883       N    1.3552925812    0.5176435318    0.4975738559         -0.4062
C884       C    1.3810723176    0.5215196156    0.4971794038         -0.4056
C885       C    1.3968636459    0.5000000000    0.5000000000         -0.4114
C886       C    1.3839910389    0.4765011271    0.5023164751          0.5821
C887       C    1.3570090963    0.4773723468    0.5003397207          0.5813
H888       H    1.3465496830    0.4581466285    0.5017056656          0.5756
H889       H    1.3945636951    0.4575133365    0.5051547128          0.5772
H890       H    1.3888955525    0.5418241269    0.4947955162         -0.4002
C796       C    0.6031363541    0.5000000000    0.0000000000         -0.4065
C797       C    0.6144489170    0.4874031525   -0.0208744047         -0.4089
C798       C    0.6408054729    0.4838065464   -0.0233232661         -0.4113
C799       C    0.6574745774    0.4921785694   -0.0033529651          0.5878
C800       C    0.6460241341    0.5019009817    0.0199044352          0.5873
C801       C    0.6193061870    0.5081491257    0.0203777401         -0.4077
C802       C    0.6845932993    0.4932589338   -0.0074769550         -0.4104
N803       N    0.6483733487    0.4738568007   -0.0474186801         -0.4106
H804       H    0.6019461686    0.4802335004   -0.0374155817         -0.4084
C805       C    0.6098308916    0.5223644525    0.0415006682         -0.4041
C806       C    0.6597451475    0.5043649193    0.0438009369          0.5806
C807       C    0.6489673573    0.5173194417    0.0646052221          0.5833
C808       C    0.6245194710    0.5273960805    0.0630747719          -0.408
N809       N    0.6835085029    0.4925443788    0.0496700896          0.5691
H810       H    0.6602268527    0.5197409029    0.0832696946          0.5785
H811       H    0.6160532974    0.5385491218    0.0798976868         -0.4053
H812       H    0.5898904557    0.5308756143    0.0423262253         -0.3975
H813       H    0.6659353742    0.4635669377   -0.0494436909           0.582
H814       H    0.6344481877    0.4646653478   -0.0593218652          0.5868
C815       C    0.7262442563    0.4767111549   -0.0220693047          0.5814
C816       C    0.7401001964    0.4965056905   -0.0096093263         -0.4081
C817       C    0.7249203260    0.5160557111    0.0011684147         -0.3967
C818       C    0.7672647387    0.4966142894   -0.0072153201         -0.4093
H819       H    0.7331129600    0.5340617785    0.0103444456         -0.3863
H820       H    0.7361244620    0.4601120947   -0.0321464029          0.5721
H821       H    0.6904967903    0.4572331523   -0.0297377632          0.5699
H822       H    0.6878190207    0.5315079362    0.0110335925         -0.3878
C823       C    0.6993959538    0.4751440855   -0.0210429565          0.5803
C824       C    0.6983093911    0.5146346962    0.0017755919         -0.3976
H825       H    0.6939433531    0.4826400934    0.0350840234          0.5665
H826       H    0.6970214324    0.5022106205    0.0616610944           0.572
C827       C    0.7834156663    0.4786311541   -0.0195002052           0.581
N828       N    0.8093222939    0.4773999921   -0.0161048953          0.5785
C829       C    0.8219080818    0.4954853541   -0.0012760833          0.5868
C830       C    0.8069113027    0.5141009893    0.0114611150         -0.4032
C831       C    0.7802828899    0.5143359923    0.0088263259         -0.4016
H833       H    0.7755280947    0.4639932448   -0.0335662557          0.5749
H834       H    0.7701207099    0.5291886620    0.0210976859         -0.3944
H835       H    0.8159203276    0.5290166822    0.0246777352         -0.3966
N836       N    0.8552925812    0.4978015913   -0.0176733525         -0.4062
C837       C    0.8810723176    0.4974571586   -0.0215542009         -0.4056
C838       C    0.8968636459    0.5000000000    0.0000000000         -0.4114
C839       C    0.8839910389    0.5020132374    0.0235267924          0.5821
C840       C    0.8570090963    0.5000478828    0.0226301526          0.5813
H841       H    0.8465496830    0.5011657764    0.0418718875          0.5756
H842       H    0.8945636951    0.5046063696    0.0425496063          0.5772
H843       H    0.8888955525    0.4953353193   -0.0418877667         -0.4002
C749       C    1.1031363541    0.5000000000    0.0000000000         -0.4065
C750       C    1.1144489170    0.4880342457    0.0212424590         -0.4089
C751       C    1.1408054729    0.4876738001    0.0255786528         -0.4113
C752       C    1.1574745774    0.5009329528    0.0084585313          0.5878
C753       C    1.1460241341    0.5163881641   -0.0114554943          0.5873
C754       C    1.1193061870    0.5137235296   -0.0171267415         -0.4077
C755       C    1.1845932993    0.4968115879    0.0095488669         -0.4104
N756       N    1.1483733487    0.4716011465    0.0461031800         -0.4106
H757       H    1.1019461686    0.4771676498    0.0356275742         -0.4084
C758       C    1.1098308916    0.5251086522   -0.0399002478         -0.4041
C759       C    1.1597451475    0.5359737005   -0.0253666605          0.5806
C760       C    1.1489673573    0.5477023059   -0.0468859019          0.5833
C761       C    1.1245194710    0.5414085149   -0.0549027045          -0.408
N762       N    1.1835085029    0.5469024610   -0.0179683956          0.5691
H763       H    1.1602268527    0.5627549606   -0.0581838482          0.5785
H764       H    1.1160532974    0.5505589072   -0.0728935666         -0.4053
H765       H    1.0898904557    0.5216362981   -0.0477146048         -0.3975
H766       H    1.1659353742    0.4749053652    0.0560562744           0.582
H767       H    1.1344481877    0.4657668499    0.0599642624          0.5868
C768       C    1.2262442563    0.4922589783    0.0311368126          0.5814
C769       C    1.2401001964    0.4933569356    0.0077729689         -0.4081
C770       C    1.2249203260    0.4931111244   -0.0145497232         -0.3967
C771       C    1.2672647387    0.4953871307    0.0064996398         -0.4093
H772       H    1.2331129600    0.4922314763   -0.0347399244         -0.3863
H773       H    1.2361244620    0.4916615553    0.0505460834          0.5721
H774       H    1.1904967903    0.4951755515    0.0518658126          0.5699
H775       H    1.1878190207    0.4940887998   -0.0328564745         -0.3878
C776       C    1.1993959538    0.4939239047    0.0319953679          0.5803
C777       C    1.1983093911    0.4943393001   -0.0136118895         -0.3976
H778       H    1.1939433531    0.5390840659   -0.0021658359          0.5665
H779       H    1.1970214324    0.5525794072   -0.0322859620           0.572
C780       C    1.2834156663    0.4935496363    0.0282006806           0.581
N781       N    1.3093222939    0.4971110332    0.0276003964          0.5785
C782       C    1.3219080818    0.5011123468    0.0045577518          0.5868
C783       C    1.3069113027    0.5030320780   -0.0179165164         -0.4032
C784       C    1.2802828899    0.5006231234   -0.0168236863         -0.4016
H786       H    1.2755280947    0.4885146819    0.0478671851          0.5749
H787       H    1.2701207099    0.5039902865   -0.0357934065         -0.3944
H788       H    1.3159203276    0.5071909339   -0.0374065359         -0.3966
N789       N    1.3552925812    0.4857001545    0.0106157811         -0.4062
C790       C    1.3810723176    0.4824919823    0.0128264934         -0.4056
C791       C    1.3968636459    0.5000000000    0.0000000000         -0.4114
C792       C    1.3839910389    0.5194856775   -0.0133368460          0.5821
C793       C    1.3570090963    0.5196730099   -0.0111847566          0.5813
H794       H    1.3465496830    0.5358699725   -0.0216323617          0.5756
H795       H    1.3945636951    0.5347656908   -0.0249606567          0.5772
H796       H    1.3888955525    0.4658390663    0.0246855191         -0.4002
C702       C    1.0000000000    0.5000000000   -0.1031363541         -0.4065
C703       C    0.9757731726    0.4972646443   -0.1144489170         -0.4089
C704       C    0.9720467323    0.4950182826   -0.1408054729         -0.4113
C705       C    0.9936887225    0.4942916791   -0.1574745774          0.5878
C706       C    1.0188814352    0.4934203588   -0.1460241341          0.5873
C707       C    1.0219192218    0.4989007943   -0.1193061870         -0.4077
C708       C    0.9903919589    0.4969946089   -0.1845932993         -0.4104
N709       N    0.9459976009    0.4960327611   -0.1483733487         -0.4106
H710       H    0.9577491934    0.4976527459   -0.1019461686         -0.4084
C711       C    1.0470473687    0.5030032134   -0.1098308916         -0.4041
C712       C    1.0416255916    0.4856862054   -0.1597451475          0.5806
C713       C    1.0659379745    0.4887758609   -0.1489673573          0.5833
C714       C    1.0687526873    0.4985716927   -0.1245194710          -0.408
N715       N    1.0420258331    0.4724948470   -0.1835085029          0.5691
H716       H    1.0839098227    0.4831867034   -0.1602268527          0.5785
H717       H    1.0886951685    0.5016858926   -0.1160532974         -0.4053
H718       H    1.0513497372    0.5103931420   -0.0898904557         -0.3975
H719       H    0.9398628910    0.4875270405   -0.1659353742           0.582
H720       H    0.9313445721    0.4926478877   -0.1344481877          0.5868
C721       C    0.9702249902    0.4880470377   -0.2262442563          0.5814
C722       C    0.9898092163    0.5008350317   -0.2401001964         -0.4081
C723       C    1.0077626687    0.5141029085   -0.2249203260         -0.3967
C724       C    0.9920300815    0.4999345780   -0.2672647387         -0.4093
H725       H    1.0236162035    0.5266362017   -0.2331129600         -0.3863
H726       H    0.9541398317    0.4771684173   -0.2361244620          0.5721
H727       H    0.9551271397    0.4735469428   -0.1904967903          0.5699
H728       H    1.0231766121    0.5240277935   -0.1878190207         -0.3878
C729       C    0.9705036601    0.4861946230   -0.1993959538          0.5803
C730       C    1.0077213750    0.5125581617   -0.1983093911         -0.3976
H731       H    1.0246372475    0.4695818953   -0.1939433531          0.5665
H732       H    1.0569568215    0.4762745308   -0.1970214324           0.572
C733       C    0.9733609615    0.4887196096   -0.2834156663           0.581
N734       N    0.9759326051    0.4861837590   -0.3093222939          0.5785
C735       C    0.9969561706    0.4964299132   -0.3219080818          0.5868
C736       C    1.0163003030    0.5080308892   -0.3069113027         -0.4032
C737       C    1.0140040302    0.5093440806   -0.2802828899         -0.4016
H739       H    0.9544693519    0.4812879712   -0.2755280947          0.5749
H740       H    1.0313543544    0.5177198985   -0.2701207099         -0.3944
H741       H    1.0345359305    0.5160694732   -0.3159203276         -0.3966
N742       N    0.9830219186    0.5053782099   -0.3552925812         -0.4062
C743       C    0.9793514672    0.5066848868   -0.3810723176         -0.4056
C744       C    1.0000000000    0.5000000000   -0.3968636459         -0.4114
C745       C    1.0222200845    0.4920105739   -0.3839910389          0.5821
C746       C    1.0205850235    0.4905987816   -0.3570090963          0.5813
H747       H    1.0385374099    0.4835840920   -0.3465496830          0.5756
H748       H    1.0405892208    0.4864278671   -0.3945636951          0.5772
H749       H    0.9599878864    0.5132429231   -0.3888955525         -0.4002
C655       C    1.0000000000    0.5000000000    0.3968636459         -0.4065
C656       C    1.0242268274    0.5027353557    0.3855510830         -0.4089
C657       C    1.0279532677    0.5049817174    0.3591945271         -0.4113
C658       C    1.0063112775    0.5057083209    0.3425254226          0.5878
C659       C    0.9811185648    0.5065796412    0.3539758659          0.5873
C660       C    0.9780807782    0.5010992057    0.3806938130         -0.4077
C661       C    1.0096080411    0.5030053911    0.3154067007         -0.4104
N662       N    1.0540023991    0.5039672389    0.3516266513         -0.4106
H663       H    1.0422508066    0.5023472541    0.3980538314         -0.4084
C664       C    0.9529526313    0.4969967866    0.3901691084         -0.4041
C665       C    0.9583744084    0.5143137946    0.3402548525          0.5806
C666       C    0.9340620255    0.5112241391    0.3510326427          0.5833
C667       C    0.9312473127    0.5014283073    0.3754805290          -0.408
N668       N    0.9579741669    0.5275051530    0.3164914971          0.5691
H669       H    0.9160901773    0.5168132966    0.3397731473          0.5785
H670       H    0.9113048315    0.4983141074    0.3839467026         -0.4053
H671       H    0.9486502628    0.4896068580    0.4101095443         -0.3975
H672       H    1.0601371090    0.5124729595    0.3340646258           0.582
H673       H    1.0686554279    0.5073521123    0.3655518123          0.5868
C674       C    1.0297750098    0.5119529623    0.2737557437          0.5814
C675       C    1.0101907837    0.4991649683    0.2598998036         -0.4081
C676       C    0.9922373313    0.4858970915    0.2750796740         -0.3967
C677       C    1.0079699185    0.5000654220    0.2327352613         -0.4093
H678       H    0.9763837965    0.4733637983    0.2668870400         -0.3863
H679       H    1.0458601683    0.5228315827    0.2638755380          0.5721
H680       H    1.0448728603    0.5264530572    0.3095032097          0.5699
H681       H    0.9768233879    0.4759722065    0.3121809793         -0.3878
C682       C    1.0294963399    0.5138053770    0.3006040462          0.5803
C683       C    0.9922786250    0.4874418383    0.3016906089         -0.3976
H684       H    0.9753627525    0.5304181047    0.3060566469          0.5665
H685       H    0.9430431785    0.5237254692    0.3029785676           0.572
C686       C    1.0266390385    0.5112803904    0.2165843337           0.581
N687       N    1.0240673949    0.5138162410    0.1906777061          0.5785
C688       C    1.0030438294    0.5035700868    0.1780919182          0.5868
C689       C    0.9836996970    0.4919691108    0.1930886973         -0.4032
C690       C    0.9859959698    0.4906559194    0.2197171101         -0.4016
H692       H    1.0455306481    0.5187120288    0.2244719053          0.5749
H693       H    0.9686456456    0.4822801015    0.2298792901         -0.3944
H694       H    0.9654640695    0.4839305268    0.1840796724         -0.3966
N695       N    1.0169780814    0.4946217901    0.1447074188         -0.4062
C696       C    1.0206485328    0.4933151132    0.1189276824         -0.4056
C697       C    1.0000000000    0.5000000000    0.1031363541         -0.4114
C698       C    0.9777799155    0.5079894261    0.1160089611          0.5821
C699       C    0.9794149765    0.5094012184    0.1429909037          0.5813
H700       H    0.9614625901    0.5164159080    0.1534503170          0.5756
H701       H    0.9594107792    0.5135721329    0.1054363049          0.5772
H702       H    1.0400121136    0.4867570769    0.1111044475         -0.4002
C608       C    1.0000000000   -0.3968636459    0.5000000000         -0.4065
C609       C    0.9757443388   -0.3855510830    0.4975333755         -0.4089
C610       C    0.9719932258   -0.3591945271    0.4953284607         -0.4113
C611       C    0.9936258315   -0.3425254226    0.4943619926          0.5878
C612       C    1.0188073373   -0.3539758659    0.4932114556          0.5873
C613       C    1.0219056899   -0.3806938130    0.4986578794         -0.4077
C614       C    0.9903592334   -0.3154067007    0.4971013021         -0.4104
N615       N    0.9459569408   -0.3516266513    0.4966316408         -0.4106
H616       H    0.9577257693   -0.3980538314    0.4981212554         -0.4084
C617       C    1.0470777696   -0.3901691084    0.5024814920         -0.4041
C618       C    1.0414643604   -0.3402548525    0.4852256503          0.5806
C619       C    1.0658094994   -0.3510326427    0.4880456045          0.5833
C620       C    1.0687326295   -0.3754805290    0.4978096323          -0.408
N621       N    1.0417183463   -0.3164914971    0.4720306656          0.5691
H622       H    1.0837182854   -0.3397731473    0.4822575660          0.5785
H623       H    1.0887084074   -0.3839467026    0.5007025713         -0.4053
H624       H    1.0514617937   -0.4101095443    0.5098232732         -0.3975
H625       H    0.9397283189   -0.3340646258    0.4881944483           0.582
H626       H    0.9312672898   -0.3655518123    0.4934094094          0.5868
C627       C    0.9700943168   -0.2737557437    0.4883778388          0.5814
C628       C    0.9898190991   -0.2598998036    0.5009479489         -0.4081
C629       C    1.0079185275   -0.2750796740    0.5140159900         -0.3967
C630       C    0.9920298460   -0.2327352613    0.5000229314         -0.4093
H631       H    1.0239100243   -0.2668870400    0.5263727709         -0.3863
H632       H    0.9538895533   -0.2638755380    0.4776781966          0.5721
H633       H    0.9548366553   -0.3095032097    0.4740459999          0.5699
H634       H    1.0234415447   -0.3121809793    0.5237693960         -0.3878
C635       C    0.9703524349   -0.3006040462    0.4865224487          0.5803
C636       C    1.0078601123   -0.3016906089    0.5124717959         -0.3976
H637       H    1.0242985381   -0.3060566469    0.4693106517          0.5665
H638       H    1.0566903165   -0.3029785676    0.4756446018           0.572
C639       C    0.9732375512   -0.2165843337    0.4890156060           0.581
N640       N    0.9757809260   -0.1906777061    0.4864514036          0.5785
C641       C    0.9969167820   -0.1780919182    0.4964638745          0.5868
C642       C    1.0163883267   -0.1930886973    0.5078497010         -0.4032
C643       C    1.0141067522   -0.2197171101    0.5091882667         -0.4016
H645       H    0.9542647199   -0.2244719053    0.4817938445          0.5749
H646       H    1.0315488592   -0.2298792901    0.5173712354         -0.3944
H647       H    1.0347119443   -0.1840796724    0.5156856426         -0.3966
N648       N    0.9830825812   -0.1447074188    0.5055660875         -0.4062
C649       C    0.9794268403   -0.1189276824    0.5069133724         -0.4056
C650       C    1.0000000000   -0.1031363541    0.5000000000         -0.4114
C651       C    1.0221301536   -0.1160089611    0.4917647472          0.5821
C652       C    1.0204795428   -0.1429909037    0.4903711669          0.5813
H653       H    1.0383530658   -0.1534503170    0.4831578997          0.5756
H654       H    1.0404362749   -0.1054363049    0.4859787550          0.5772
H655       H    0.9601371475   -0.1111044475    0.5136856580         -0.4002
C561       C    1.0000000000    0.3968636459    0.5000000000         -0.4065
C562       C    0.9757443388    0.3855510830    0.5024666245         -0.4089
C563       C    0.9719932258    0.3591945271    0.5046715393         -0.4113
C564       C    0.9936258315    0.3425254226    0.5056380074          0.5878
C565       C    1.0188073373    0.3539758659    0.5067885444          0.5873
C566       C    1.0219056899    0.3806938130    0.5013421206         -0.4077
C567       C    0.9903592334    0.3154067007    0.5028986979         -0.4104
N568       N    0.9459569408    0.3516266513    0.5033683592         -0.4106
H569       H    0.9577257693    0.3980538314    0.5018787446         -0.4084
C570       C    1.0470777696    0.3901691084    0.4975185080         -0.4041
C571       C    1.0414643604    0.3402548525    0.5147743497          0.5806
C572       C    1.0658094994    0.3510326427    0.5119543955          0.5833
C573       C    1.0687326295    0.3754805290    0.5021903677          -0.408
N574       N    1.0417183463    0.3164914971    0.5279693344          0.5691
H575       H    1.0837182854    0.3397731473    0.5177424340          0.5785
H576       H    1.0887084074    0.3839467026    0.4992974287         -0.4053
H577       H    1.0514617937    0.4101095443    0.4901767268         -0.3975
H578       H    0.9397283189    0.3340646258    0.5118055517           0.582
H579       H    0.9312672898    0.3655518123    0.5065905906          0.5868
C580       C    0.9700943168    0.2737557437    0.5116221612          0.5814
C581       C    0.9898190991    0.2598998036    0.4990520511         -0.4081
C582       C    1.0079185275    0.2750796740    0.4859840100         -0.3967
C583       C    0.9920298460    0.2327352613    0.4999770686         -0.4093
H584       H    1.0239100243    0.2668870400    0.4736272291         -0.3863
H585       H    0.9538895533    0.2638755380    0.5223218034          0.5721
H586       H    0.9548366553    0.3095032097    0.5259540001          0.5699
H587       H    1.0234415447    0.3121809793    0.4762306040         -0.3878
C588       C    0.9703524349    0.3006040462    0.5134775513          0.5803
C589       C    1.0078601123    0.3016906089    0.4875282041         -0.3976
H590       H    1.0242985381    0.3060566469    0.5306893483          0.5665
H591       H    1.0566903165    0.3029785676    0.5243553982           0.572
C592       C    0.9732375512    0.2165843337    0.5109843940           0.581
N593       N    0.9757809260    0.1906777061    0.5135485964          0.5785
C594       C    0.9969167820    0.1780919182    0.5035361255          0.5868
C595       C    1.0163883267    0.1930886973    0.4921502990         -0.4032
C596       C    1.0141067522    0.2197171101    0.4908117333         -0.4016
H598       H    0.9542647199    0.2244719053    0.5182061555          0.5749
H599       H    1.0315488592    0.2298792901    0.4826287646         -0.3944
H600       H    1.0347119443    0.1840796724    0.4843143574         -0.3966
N601       N    0.9830825812    0.1447074188    0.4944339125         -0.4062
C602       C    0.9794268403    0.1189276824    0.4930866276         -0.4056
C603       C    1.0000000000    0.1031363541    0.5000000000         -0.4114
C604       C    1.0221301536    0.1160089611    0.5082352528          0.5821
C605       C    1.0204795428    0.1429909037    0.5096288331          0.5813
H606       H    1.0383530658    0.1534503170    0.5168421003          0.5756
H607       H    1.0404362749    0.1054363049    0.5140212450          0.5772
H608       H    0.9601371475    0.1111044475    0.4863143420         -0.4002
C514       C    0.8968636459   -0.0000000000    0.5000000000         -0.4065
C515       C    0.8855510830   -0.0234138712    0.5067979390         -0.4089
C516       C    0.8591945271   -0.0277177806    0.5061585161         -0.4113
C517       C    0.8425254226   -0.0080218938    0.4971598642          0.5878
C518       C    0.8539758659    0.0148956106    0.4866612948          0.5873
C519       C    0.8806938130    0.0198083906    0.4905507566         -0.4077
C520       C    0.8154067007   -0.0100246888    0.5009232792         -0.4104
N521       N    0.8516266513   -0.0513706685    0.5171187765         -0.4106
H522       H    0.8980538314   -0.0399006032    0.5140919170         -0.4084
C523       C    0.8901691084    0.0445802331    0.4846677785         -0.4041
C524       C    0.8402548525    0.0329122360    0.4707705745          0.5806
C525       C    0.8510326427    0.0565414118    0.4642667308          0.5833
C526       C    0.8754805290    0.0629088920    0.4722251304          -0.408
N527       N    0.8164914971    0.0282055246    0.4584409761          0.5691
H528       H    0.8397731473    0.0709786220    0.4521922548          0.5785
H529       H    0.8839467026    0.0825141071    0.4674255118         -0.4053
H530       H    0.9101095443    0.0513950052    0.4898330760         -0.3975
H531       H    0.8340646258   -0.0603060512    0.5116287051           0.582
H532       H    0.8655518123   -0.0661978928    0.5196331436          0.5868
C533       C    0.7737557437   -0.0320818299    0.5004250988          0.5814
C534       C    0.7598998036   -0.0090847351    0.5046922212         -0.4081
C535       C    0.7750796740    0.0125918232    0.5100298076         -0.3967
C536       C    0.7327352613   -0.0073813847    0.5030064997         -0.4093
H537       H    0.7668870400    0.0320474909    0.5154974397         -0.3863
H538       H    0.7638755380   -0.0511145550    0.4965738551          0.5721
H539       H    0.8095032097   -0.0515968432    0.4928513220          0.5699
H540       H    0.8121809793    0.0306380144    0.5132590452         -0.3878
C541       C    0.8006040462   -0.0325374414    0.4986080916          0.5803
C542       C    0.8016906089    0.0119592792    0.5086199013         -0.3976
H543       H    0.8060566469    0.0110349890    0.4624435881          0.5665
H544       H    0.8029785676    0.0434412307    0.4561840568           0.572
C545       C    0.7165843337   -0.0289285275    0.4998391354           0.581
N546       N    0.6906777061   -0.0275307227    0.4965089656          0.5785
C547       C    0.6780919182   -0.0041832410    0.4978761093          0.5868
C548       C    0.6930886973    0.0181354746    0.5011400075         -0.4032
C549       C    0.7197171101    0.0165213479    0.5032357019         -0.4016
H551       H    0.7244719053   -0.0492251739    0.5002493887          0.5749
H552       H    0.7298792901    0.0357587200    0.5042900216         -0.3944
H553       H    0.6840796724    0.0380602088    0.5015423901         -0.3966
N554       N    0.6447074188   -0.0136011408    0.5114973631         -0.4062
C555       C    0.6189276824   -0.0164861370    0.5141158389         -0.4056
C556       C    0.6031363541   -0.0000000000    0.5000000000         -0.4114
C557       C    0.6160089611    0.0174346778    0.4840753306          0.5821
C558       C    0.6429909037    0.0153822534    0.4834014344          0.5813
H559       H    0.6534503170    0.0292529451    0.4700186858          0.5756
H560       H    0.6054363049    0.0322410660    0.4718539292          0.5772
H561       H    0.6111044475   -0.0318350801    0.5276201361         -0.4002
C467       C    1.1031363541   -0.0000000000    0.5000000000         -0.4065
C468       C    1.1144489170    0.0221060234    0.5102832422         -0.4089
C469       C    1.1408054729    0.0264571102    0.5103065028         -0.4113
C470       C    1.1574745774    0.0083607704    0.4984142290          0.5878
C471       C    1.1460241341   -0.0126912857    0.4845490602          0.5873
C472       C    1.1193061870   -0.0181389339    0.4876452594         -0.4077
C473       C    1.1845932993    0.0097672749    0.5024386824         -0.4104
N474       N    1.1483733487    0.0481656896    0.5247399361         -0.4106
H475       H    1.1019461686    0.0372901368    0.5200021488         -0.4084
C476       C    1.1098308916   -0.0417263935    0.4780595744         -0.4041
C477       C    1.1597451475   -0.0280786853    0.4661007076          0.5806
C478       C    1.1489673573   -0.0504422769    0.4560753545          0.5833
C479       C    1.1245194710   -0.0579471264    0.4629715971          -0.408
N480       N    1.1835085029   -0.0215497715    0.4546313827          0.5691
H481       H    1.1602268527   -0.0628729725    0.4419436945          0.5785
H482       H    1.1160532974   -0.0765931150    0.4552432142         -0.4053
H483       H    1.0898904557   -0.0492480974    0.4821271768         -0.3975
H484       H    1.1659353742    0.0578327288    0.5206741887           0.582
H485       H    1.1344481877    0.0624372906    0.5294823011          0.5868
C486       C    1.2262442563    0.0316431491    0.5053043032          0.5814
C487       C    1.2401001964    0.0082644915    0.5060205923         -0.4081
C488       C    1.2249203260   -0.0139719907    0.5079959070         -0.3967
C489       C    1.2672647387    0.0068376316    0.5040952013         -0.4093
H490       H    1.2331129600   -0.0340332684    0.5104378612         -0.3863
H491       H    1.2361244620    0.0510403343    0.5043955067          0.5721
H492       H    1.1904967903    0.0520837216    0.5007897894          0.5699
H493       H    1.1878190207   -0.0322994469    0.5084401383         -0.3878
C494       C    1.1993959538    0.0323700722    0.5035778386          0.5803
C495       C    1.1983093911   -0.0131321749    0.5066987342         -0.3976
H496       H    1.1939433531   -0.0051887455    0.4612013921          0.5665
H497       H    1.1970214324   -0.0362642869    0.4500812770           0.572
C498       C    1.2834156663    0.0286158108    0.5042451092           0.581
N499       N    1.3093222939    0.0277412869    0.5007409550          0.5785
C500       C    1.3219080818    0.0044578214    0.4985377260          0.5868
C501       C    1.3069113027   -0.0180976331    0.4983657620         -0.4032
C502       C    1.2802828899   -0.0168213715    0.5006827636         -0.4016
H504       H    1.2755280947    0.0486134111    0.5077405556          0.5749
H505       H    1.2701207099   -0.0359950125    0.4987960830         -0.3944
H506       H    1.3159203276   -0.0378513726    0.4957300991         -0.3966
N507       N    1.3552925812    0.0116922320    0.5134339904         -0.4062
C508       C    1.3810723176    0.0141449606    0.5164611576         -0.4056
C509       C    1.3968636459   -0.0000000000    0.5000000000         -0.4114
C510       C    1.3839910389   -0.0148070671    0.4816066901          0.5821
C511       C    1.3570090963   -0.0126759725    0.4812531117          0.5813
H512       H    1.3465496830   -0.0243475810    0.4659146762          0.5756
H513       H    1.3945636951   -0.0275802694    0.4672736134          0.5772
H514       H    1.3888955525    0.0272590846    0.5321447748         -0.4002
C420       C   -0.0000000000   -0.3968636459    0.0000000000         -0.4065
C421       C    0.0201500231   -0.3855510830   -0.0137258117         -0.4089
C422       C    0.0244399673   -0.3591945271   -0.0144530509         -0.4113
C423       C    0.0085071969   -0.3425254226    0.0002115499          0.5878
C424       C   -0.0100229718   -0.3539758659    0.0173014540          0.5873
C425       C   -0.0158999460   -0.3806938130    0.0151278635         -0.4077
C426       C    0.0092437388   -0.3154067007   -0.0039874960         -0.4104
N427       N    0.0435260200   -0.3516266513   -0.0322099934         -0.4106
H428       H    0.0335607610   -0.3980538314   -0.0257743202         -0.4084
C429       C   -0.0376247793   -0.3901691084    0.0284051083         -0.4041
C430       C   -0.0222213302   -0.3402548525    0.0379971983          0.5806
C431       C   -0.0426672680   -0.3510326427    0.0515102128          0.5833
C432       C   -0.0511894063   -0.3754805290    0.0459196773          -0.408
N433       N   -0.0139220396   -0.3164914971    0.0482584801          0.5691
H434       H   -0.0526466304   -0.3397731473    0.0674676040          0.5785
H435       H   -0.0683385624   -0.3839467026    0.0565642647         -0.4053
H436       H   -0.0457056941   -0.4101095443    0.0256086399         -0.3975
H437       H    0.0537236794   -0.3340646258   -0.0297626086           0.582
H438       H    0.0568418028   -0.3655518123   -0.0391998825          0.5868
C439       C    0.0303672952   -0.2737557437   -0.0103562493          0.5814
C440       C    0.0071809895   -0.2598998036   -0.0072789244         -0.4081
C441       C   -0.0150819939   -0.2750796740   -0.0056288998         -0.3967
C442       C    0.0060845975   -0.2327352613   -0.0051479660         -0.4093
H443       H   -0.0352739893   -0.2668870400   -0.0047914491         -0.3863
H444       H    0.0496557921   -0.2638755380   -0.0125991473          0.5721
H445       H    0.0512690570   -0.3095032097   -0.0092098654          0.5699
H446       H   -0.0332396718   -0.3121809793   -0.0031007137         -0.3878
C447       C    0.0313640853   -0.3006040462   -0.0087702143          0.5803
C448       C   -0.0140432868   -0.3016906089   -0.0044847690         -0.3976
H449       H    0.0011597848   -0.3060566469    0.0391268444          0.5665
H450       H   -0.0277060159   -0.3029785676    0.0551303372           0.572
C451       C    0.0275513239   -0.2165843337   -0.0088210051           0.581
N452       N    0.0272555295   -0.1906777061   -0.0052215058          0.5785
C453       C    0.0046357261   -0.1780919182    0.0007214293          0.5868
C454       C   -0.0175944557   -0.1930886973    0.0045420466         -0.4032
C455       C   -0.0167100637   -0.2197171101    0.0020490182         -0.4016
H457       H    0.0467194290   -0.2244719053   -0.0155072531          0.5749
H458       H   -0.0353254765   -0.2298792901    0.0070143457         -0.3944
H459       H   -0.0366610838   -0.1840796724    0.0103403769         -0.3966
N460       N    0.0093635646   -0.1447074188   -0.0151493909         -0.4062
C461       C    0.0112939591   -0.1189276824   -0.0185336480         -0.4056
C462       C    0.0000000000   -0.1031363541   -0.0000000000         -0.4114
C463       C   -0.0116345881   -0.1160089611    0.0205474925          0.5821
C464       C   -0.0094743644   -0.1429909037    0.0205514602          0.5813
H465       H   -0.0185093160   -0.1534503170    0.0375768442          0.5756
H466       H   -0.0219193384   -0.1054363049    0.0367590838          0.5772
H467       H    0.0216965312   -0.1111044475   -0.0361331534         -0.4002
C373       C    0.0000000000    0.1031363541    0.0000000000         -0.4065
C374       C   -0.0242377661    0.1144489170    0.0026366711         -0.4089
C375       C   -0.0283656968    0.1408054729    0.0012609220         -0.4113
C376       C   -0.0074081841    0.1574745774   -0.0041875960          0.5878
C377       C    0.0169821659    0.1460241341   -0.0105549191          0.5873
C378       C    0.0211464156    0.1193061870   -0.0058727886         -0.4077
C379       C   -0.0100329835    0.1845932993   -0.0008282943         -0.4104
N380       N   -0.0535603248    0.1483733487    0.0079554822         -0.4106
H381       H   -0.0417392252    0.1019461686    0.0069625670         -0.4084
C382       C    0.0465630060    0.1098308916   -0.0073729684         -0.4041
C383       C    0.0374804507    0.1597451475   -0.0230822530          0.5806
C384       C    0.0618792864    0.1489673573   -0.0253919613          0.5833
C385       C    0.0667709405    0.1245194710   -0.0164503368          -0.408
N386       N    0.0349820953    0.1835085029   -0.0360410473          0.5691
H387       H    0.0781908591    0.1602268527   -0.0347812426          0.5785
H388       H    0.0869113276    0.1160532974   -0.0177790967         -0.4053
H389       H    0.0523793154    0.0898904557   -0.0011046382         -0.3975
H390       H   -0.0614088524    0.1659353742    0.0009997245           0.582
H391       H   -0.0685989364    0.1344481877    0.0078617595          0.5868
C392       C   -0.0316699055    0.2262442563   -0.0051421401          0.5814
C393       C   -0.0097605353    0.2401001964    0.0030465228         -0.4081
C394       C    0.0106627411    0.2249203260    0.0120605558         -0.3967
C395       C   -0.0077907784    0.2672647387    0.0016815623         -0.4093
H396       H    0.0288762024    0.2331129600    0.0208177146         -0.3863
H397       H   -0.0497469978    0.2361244620   -0.0122340678          0.5721
H398       H   -0.0495767520    0.1904967903   -0.0159838506          0.5699
H399       H    0.0278760457    0.1878190207    0.0183688944         -0.3878
C400       C   -0.0318036753    0.1993959538   -0.0070106162          0.5803
C401       C    0.0102841533    0.1983093911    0.0105623505         -0.3976
H402       H    0.0173776817    0.1939433531   -0.0350752225          0.5665
H403       H    0.0503783818    0.1970214324   -0.0356229709           0.572
C404       C   -0.0284627670    0.2834156663   -0.0051726662           0.581
N405       N   -0.0265088954    0.3093222939   -0.0082101446          0.5785
C406       C   -0.0037517832    0.3219080818   -0.0028168314          0.5868
C407       C    0.0176633668    0.3069113027    0.0042662080         -0.4032
C408       C    0.0157104217    0.2802828899    0.0060504012         -0.4016
H410       H   -0.0485233026    0.2755280947   -0.0082866790          0.5749
H411       H    0.0344738594    0.2701207099    0.0104232124         -0.3944
H412       H    0.0372167639    0.3159203276    0.0081160918         -0.3966
N413       N   -0.0153881264    0.3552925812    0.0089658214         -0.4062
C414       C   -0.0186833192    0.3810723176    0.0110446007         -0.4056
C415       C   -0.0000000000    0.3968636459    0.0000000000         -0.4114
C416       C    0.0199310304    0.3839910389   -0.0126616394          0.5821
C417       C    0.0180264803    0.3570090963   -0.0136810857          0.5813
H418       H    0.0340068751    0.3465496830   -0.0244570327          0.5756
H419       H    0.0366316600    0.3945636951   -0.0221316318          0.5772
H420       H   -0.0361406581    0.3888955525    0.0216840282         -0.4002
C326       C   -0.3968636459   -0.0000000000    0.0000000000         -0.4065
C327       C   -0.3855510830    0.0010778207    0.0243569218         -0.4089
C328       C   -0.3591945271    0.0030649843    0.0282277975         -0.4113
C329       C   -0.3425254226    0.0052649039    0.0066856517          0.5878
C330       C   -0.3539758659    0.0078512024   -0.0183890972          0.5873
C331       C   -0.3806938130    0.0025905500   -0.0217933382         -0.4077
C332       C   -0.3154067007    0.0023435687    0.0097905320         -0.4104
N333       N   -0.3516266513    0.0002774914    0.0541472168         -0.4106
H334       H   -0.3980538314   -0.0005377991    0.0423125399         -0.4084
C335       C   -0.3901691084    0.0002102738   -0.0471426556         -0.4041
C336       C   -0.3402548525    0.0171174954   -0.0405532482          0.5806
C337       C   -0.3510326427    0.0156920297   -0.0650196738          0.5833
C338       C   -0.3754805290    0.0061108118   -0.0684954747          -0.408
N339       N   -0.3164914971    0.0303054591   -0.0400535046          0.5691
H340       H   -0.3397731473    0.0224930588   -0.0825688052          0.5785
H341       H   -0.3839467026    0.0043630290   -0.0886038325         -0.4053
H342       H   -0.4101095443   -0.0068692444   -0.0519386791         -0.3975
H343       H   -0.3340646258    0.0083453242    0.0608473677           0.582
H344       H   -0.3655518123    0.0026558199    0.0689968692          0.5868
C345       C   -0.2737557437    0.0098958589    0.0305204275          0.5814
C346       C   -0.2598998036   -0.0015276409    0.0101101763         -0.4081
C347       C   -0.2750796740   -0.0135410527   -0.0087057996         -0.3967
C348       C   -0.2327352613   -0.0004779183    0.0079558453         -0.4093
H349       H   -0.2668870400   -0.0249647084   -0.0253766751         -0.3863
H350       H   -0.2638755380    0.0196529032    0.0473096143          0.5721
H351       H   -0.3095032097    0.0233332466    0.0465714228          0.5699
H352       H   -0.3121809793   -0.0223923257   -0.0247603303         -0.3878
C353       C   -0.3006040462    0.0117629590    0.0303686565          0.5803
C354       C   -0.3016906089   -0.0120027122   -0.0085593200         -0.3976
H355       H   -0.3060566469    0.0320265219   -0.0225068201          0.5665
H356       H   -0.3029785676    0.0275521825   -0.0552073785           0.572
C357       C   -0.2165843337    0.0094385825    0.0273459090           0.581
N358       N   -0.1906777061    0.0121438065    0.0249530755          0.5785
C359       C   -0.1780919182    0.0033543339    0.0032800703          0.5868
C360       C   -0.1930886973   -0.0069012715   -0.0168097445         -0.4032
C361       C   -0.2197171101   -0.0083679114   -0.0146083114         -0.4016
H363       H   -0.2244719053    0.0155653866    0.0467000929          0.5749
H364       H   -0.2298792901   -0.0155417457   -0.0324891440         -0.3944
H365       H   -0.1840796724   -0.0136783183   -0.0355508378         -0.3966
N366       N   -0.1447074188   -0.0065228420    0.0165720524         -0.4062
C367       C   -0.1189276824   -0.0080766394    0.0201449129         -0.4056
C368       C   -0.1031363541   -0.0000000000    0.0000000000         -0.4114
C369       C   -0.1160089611    0.0094852542   -0.0216238997          0.5821
C370       C   -0.1429909037    0.0107823264   -0.0198964202          0.5813
H371       H   -0.1534503170    0.0190042465   -0.0373289782          0.5756
H372       H   -0.1054363049    0.0163069246   -0.0395698351          0.5772
H373       H   -0.1111044475   -0.0159391477    0.0390165069         -0.4002
C279       C    0.3968636459   -0.0000000000    0.0000000000         -0.4065
C280       C    0.3855510830    0.0023913240   -0.0242632007         -0.4089
C281       C    0.3591945271    0.0045845848   -0.0280211396         -0.4113
C282       C    0.3425254226    0.0056181951   -0.0063916380          0.5878
C283       C    0.3539758659    0.0068468890    0.0187861754          0.5873
C284       C    0.3806938130    0.0014101086    0.0219014185         -0.4077
C285       C    0.3154067007    0.0028687593   -0.0096497176         -0.4104
N286       N    0.3516266513    0.0032005953   -0.0540532541         -0.4106
H287       H    0.3980538314    0.0017475179   -0.0422798586         -0.4084
C288       C    0.3901691084   -0.0023353524    0.0470852453         -0.4041
C289       C    0.3402548525    0.0149029823    0.0414183016          0.5806
C290       C    0.3510326427    0.0121586081    0.0657720764          0.5905
C291       C    0.3754805290    0.0024037007    0.0687254996          -0.408
N292       N    0.3164914971    0.0280986918    0.0416313296          0.5691
H293       H    0.3397731473    0.0180022069    0.0836628103          0.5785
H294       H    0.3839467026   -0.0004272203    0.0887101608         -0.4053
H295       H    0.4101095443   -0.0096634904    0.0514920369         -0.3975
H296       H    0.3340646258    0.0116184138   -0.0603080348           0.582
H297       H    0.3655518123    0.0063772151   -0.0687528361          0.5868
C298       C    0.2737557437    0.0115292791   -0.0299416139          0.5814
C299       C    0.2598998036   -0.0009795454   -0.0101779095         -0.4081
C300       C    0.2750796740   -0.0139913436    0.0079619945         -0.3967
C301       C    0.2327352613   -0.0000476704   -0.0079700444         -0.4093
H302       H    0.2668870400   -0.0262984281    0.0239917692         -0.3863
H303       H    0.2638755380    0.0221785708   -0.0461795106          0.5721
H304       H    0.3095032097    0.0258136897   -0.0452436874          0.5699
H305       H    0.3121809793   -0.0236965199    0.0235152111         -0.3878
C306       C    0.3006040462    0.0133854614   -0.0296892561          0.5803
C307       C    0.3016906089   -0.0124473383    0.0078987864         -0.3976
H308       H    0.3060566469    0.0307646223    0.0242031625          0.5665
H309       H    0.3029785676    0.0245312455    0.0566144451           0.572
C310       C    0.2165843337    0.0109012715   -0.0267964150           0.581
N311       N    0.1906777061    0.0134733560   -0.0242610117          0.5785
C312       C    0.1780919182    0.0035265382   -0.0030941792          0.5868
C313       C    0.1930886973   -0.0077987945    0.0164126129         -0.4032
C314       C    0.2197171101   -0.0091444356    0.0141352043         -0.4016
H316       H    0.2244719053    0.0180641072   -0.0457915710          0.5749
H317       H    0.2298792901   -0.0172732253    0.0316026269         -0.3944
H318       H    0.1840796724   -0.0155778225    0.0347604647         -0.3966
N319       N    0.1447074188   -0.0056185717   -0.0169000604         -0.4062
C320       C    0.1189276824   -0.0069771974   -0.0205516018         -0.4056
C321       C    0.1031363541   -0.0000000000    0.0000000000         -0.4114
C322       C    0.1160089611    0.0083039043    0.0221044851          0.5821
C323       C    0.1429909037    0.0096923544    0.0204495566          0.5813
H324       H    0.1534503170    0.0169610657    0.0383006038          0.5756
H325       H    0.1054363049    0.0141466901    0.0403925587          0.5772
H326       H    0.1111044475   -0.0138093249   -0.0398201807         -0.4002
C232       C   -0.0000000000    0.0000000000   -0.3968636459         -0.4065
C233       C   -0.0242360868    0.0026520621   -0.3855510830         -0.4089
C234       C   -0.0279702267    0.0048856012   -0.3591945271         -0.4113
C235       C   -0.0063308620    0.0056865928   -0.3425254226          0.5878
C236       C    0.0188587067    0.0066445055   -0.3539758659          0.5873
C237       C    0.0219153139    0.0011745445   -0.3806938130         -0.4077
C238       C   -0.0096183151    0.0029723466   -0.3154067007         -0.4104
N239       N   -0.0540157170    0.0037815873   -0.3516266513         -0.4106
H240       H   -0.0422586254    0.0022020071   -0.3980538314         -0.4084
C241       C    0.0470574140   -0.0028414748   -0.3901691084         -0.4041
C242       C    0.0415761433    0.0144567941   -0.3402548525          0.5806
C243       C    0.0658990030    0.0114507284   -0.3510326427          0.5833
C244       C    0.0687473715    0.0016646298   -0.3754805290          -0.408
N245       N    0.0419310384    0.0276494503   -0.3164914971          0.5691
H246       H    0.0838515328    0.0171016294   -0.3397731473          0.5785
H247       H    0.0887004396   -0.0013810013   -0.3839467026         -0.4053
H248       H    0.0513851592   -0.0102165707   -0.4101095443         -0.3975
H249       H   -0.0601796283    0.0122661702   -0.3340646258           0.582
H250       H   -0.0686802945    0.0071160723   -0.3655518123          0.5868
C251       C   -0.0298159211    0.0118505429   -0.2737557437          0.5814
C252       C   -0.0101878532   -0.0008700566   -0.2598998036         -0.4081
C253       C    0.0078111003   -0.0140761417   -0.2750796740         -0.3967
C254       C   -0.0079700962    0.0000380258   -0.2327352613         -0.4093
H255       H    0.0237076234   -0.0265548658   -0.2668870400         -0.3863
H256       H   -0.0459383788    0.0226738078   -0.2638755380          0.5721
H257       H   -0.0449635250    0.0262986547   -0.3095032097          0.5699
H258       H    0.0232590684   -0.0239479841   -0.3121809793         -0.3878
C259       C   -0.0295436204    0.0137039046   -0.3006040462          0.5803
C260       C    0.0077644969   -0.0125315460   -0.3016906089         -0.3976
H261       H    0.0245325426    0.0305026132   -0.3060566469          0.5665
H262       H    0.0568749309    0.0239211128   -0.3029785676           0.572
C263       C   -0.0266776564    0.0111887546   -0.2165843337           0.581
N264       N   -0.0241147447    0.0137334300   -0.1906777061          0.5785
C265       C   -0.0030560832    0.0035596028   -0.1780919182          0.5868
C266       C    0.0163278121   -0.0079748110   -0.1930886973         -0.4032
C267       C    0.0140360669   -0.0092958878   -0.2197171101         -0.4016
H269       H   -0.0455947000    0.0185554109   -0.2244719053          0.5749
H270       H    0.0314150796   -0.0176120161   -0.2298792901         -0.3944
H271       H    0.0345909637   -0.0159506642   -0.1840796724         -0.3966
N272       N   -0.0169594940   -0.0054365386   -0.1447074188         -0.4062
C273       C   -0.0206254322   -0.0067558247   -0.1189276824         -0.4056
C274       C    0.0000000000    0.0000000000   -0.1031363541         -0.4114
C275       C    0.0221924904    0.0080657584   -0.1160089611          0.5821
C276       C    0.0205525860    0.0094719219   -0.1429909037          0.5813
H277       H    0.0384807541    0.0165482797   -0.1534503170          0.5756
H278       H    0.0405423281    0.0137115743   -0.1054363049          0.5772
H279       H   -0.0399663559   -0.0133803828   -0.1111044475         -0.4002
C185       C   -0.0000000000    0.0000000000    0.1031363541         -0.4065
C186       C    0.0088588189    0.0227143714    0.1144489170         -0.4089
C187       C    0.0119859647    0.0257398394    0.1408054729         -0.4113
C188       C    0.0071363497    0.0046356946    0.1574745774          0.5878
C189       C    0.0015157280   -0.0199374733    0.1460241341          0.5873
C190       C   -0.0045606012   -0.0214676840    0.1193061870         -0.4077
C191       C    0.0053696042    0.0085155259    0.1845932993         -0.4104
N192       N    0.0176879193    0.0511774911    0.1483733487         -0.4106
H193       H    0.0131074658    0.0402347437    0.1019461686         -0.4084
C194       C   -0.0149719541   -0.0447025143    0.1098308916         -0.4041
C195       C    0.0031564139   -0.0439045743    0.1597451475          0.5806
C196       C   -0.0060667962   -0.0666107481    0.1489673573          0.5833
C197       C   -0.0162568819   -0.0668183049    0.1245194710          -0.408
N198       N    0.0158036513   -0.0476754517    0.1835085029          0.5691
H199       H   -0.0052750657   -0.0854149809    0.1602268527          0.5785
H200       H   -0.0243827873   -0.0852945182    0.1160532974         -0.4053
H201       H   -0.0232182836   -0.0469651383    0.0898904557         -0.3975
H202       H    0.0274827589    0.0549248993    0.1659353742           0.582
H203       H    0.0247185167    0.0644718254    0.1344481877          0.5868
C204       C    0.0191912572    0.0257122571    0.2262442563          0.5814
C205       C    0.0018071934    0.0100639655    0.2401001964         -0.4081
C206       C   -0.0156223454   -0.0038850196    0.2249203260         -0.3967
C207       C    0.0021077865    0.0076864242    0.2672647387         -0.4093
H208       H   -0.0318031833   -0.0159928059    0.2331129600         -0.3863
H209       H    0.0338322148    0.0384683954    0.2361244620          0.5721
H210       H    0.0370792196    0.0365850966    0.1904967903          0.5699
H211       H   -0.0291692947   -0.0162370702    0.1878190207         -0.3878
C212       C    0.0209101930    0.0249677058    0.1993959538          0.5803
C213       C   -0.0141187000   -0.0042413876    0.1983093911         -0.3976
H214       H    0.0230798825   -0.0316160415    0.1939433531          0.5665
H215       H    0.0083201498   -0.0611371615    0.1970214324           0.572
C216       C    0.0177367100    0.0228537677    0.2834156663           0.581
N217       N    0.0195279853    0.0197176520    0.3093222939          0.5785
C218       C    0.0042314599    0.0020261203    0.3219080818          0.5868
C219       C   -0.0119437169   -0.0136946225    0.3069113027         -0.4032
C220       C   -0.0126238910   -0.0111383159    0.2802828899         -0.4016
H222       H    0.0297659877    0.0392067076    0.2755280947          0.5749
H223       H   -0.0251703596   -0.0257593350    0.2701207099         -0.3944
H224       H   -0.0243913473   -0.0292578304    0.3159203276         -0.3966
N225       N   -0.0008427769    0.0177896069    0.3552925812         -0.4062
C226       C   -0.0011641312    0.0216724345    0.3810723176         -0.4056
C227       C    0.0000000000    0.0000000000    0.3968636459         -0.4114
C228       C    0.0020218582   -0.0235260531    0.3839910389          0.5821
C229       C    0.0038058537   -0.0223078815    0.3570090963          0.5813
H230       H    0.0059804037   -0.0414590011    0.3465496830          0.5756
H231       H    0.0027054359   -0.0427126241    0.3945636951          0.5772
H232       H   -0.0025352906    0.0420703761    0.3888955525         -0.4002
loop_
_geom_bond_atom_site_label_1
_geom_bond_atom_site_label_2
_geom_bond_distance
_geom_bond_site_symmetry_2
_ccdc_geom_bond_type
Zn1          O5 1.942       .   S
Zn1          O6 1.922       .   S
Zn1         O10 1.922       .   S
Zn1         O17 1.922       .   S
Zn2          O5 1.942       .   S
Zn2          O7 1.922       .   S
Zn2          O9 1.922       .   S
Zn2         O13 1.922       .   S
Zn3          O5 1.942       .   S
Zn3          O8 1.922       .   S
Zn3         O11 1.922       .   S
Zn3         O14 1.922       .   S
Zn4          O5 1.942       .   S
Zn4         O12 1.922       .   S
Zn4         O15 1.922       .   S
Zn4         O16 1.922       .   S
O6          C18 1.304       .   A
O7          C19 1.304       .   A
O8          C20 1.304       .   A
O9          C18 1.304       .   A
O10         C20 1.304       .   A
O11         C19 1.304       .   A
O12         C21 1.304       .   A
O13         C22 1.304       .   A
O14         C21 1.304       .   A
O15         C22 1.304       .   A
O16         C23 1.304       .   A
O17         C23 1.304       .   A
C18        C185 1.540       .   S
C19        C321 1.540       .   S
C20        C462 1.540       .   S
C21        C274 1.540       .   S
C22        C373 1.540       .   S
C23        C368 1.540       .   S
Zn24        O28 1.942       .   S
Zn24        O29 1.922       .   S
Zn24        O33 1.922       .   S
Zn24        O40 1.922       .   S
Zn25        O28 1.942       .   S
Zn25        O30 1.922       .   S
Zn25        O32 1.922       .   S
Zn25        O36 1.922       .   S
Zn26        O28 1.942       .   S
Zn26        O31 1.922       .   S
Zn26        O34 1.922       .   S
Zn26        O37 1.922       .   S
Zn27        O28 1.942       .   S
Zn27        O35 1.922       .   S
Zn27        O38 1.922       .   S
Zn27        O39 1.922       .   S
O29         C41 1.304       .   A
O30         C42 1.304       .   A
O31         C43 1.304       .   A
O32         C41 1.304       .   A
O33         C43 1.304       .   A
O34         C42 1.304       .   A
O35         C44 1.304       .   A
O36         C45 1.304       .   A
O37         C44 1.304       .   A
O38         C45 1.304       .   A
O39         C46 1.304       .   A
O40         C46 1.304       .   A
C41        C603 1.540       .   S
C42        C514 1.540       .   S
C43        C227 1.540   1_655   S
C44        C650 1.540       .   S
C45        C232 1.540   1_656   S
C46        C467 1.540       .   S
Zn47        O51 1.942       .   S
Zn47        O52 1.922       .   S
Zn47        O56 1.922       .   S
Zn47        O63 1.922       .   S
Zn48        O51 1.942       .   S
Zn48        O53 1.922       .   S
Zn48        O55 1.922       .   S
Zn48        O59 1.922       .   S
Zn49        O51 1.942       .   S
Zn49        O54 1.922       .   S
Zn49        O57 1.922       .   S
Zn49        O60 1.922       .   S
Zn50        O51 1.942       .   S
Zn50        O58 1.922       .   S
Zn50        O61 1.922       .   S
Zn50        O62 1.922       .   S
O52         C64 1.304       .   A
O53         C65 1.304       .   A
O54         C66 1.304       .   A
O55         C64 1.304       .   A
O56         C66 1.304       .   A
O57         C65 1.304       .   A
O58         C67 1.304       .   A
O59         C68 1.304       .   A
O60         C67 1.304       .   A
O61         C68 1.304       .   A
O62         C69 1.304       .   A
O63         C69 1.304       .   A
C64        C415 1.540   1_655   S
C65        C697 1.540       .   S
C66        C749 1.540       .   S
C67        C420 1.540   1_665   S
C68        C838 1.540       .   S
C69        C702 1.540       .   S
Zn70        O74 1.942       .   S
Zn70        O75 1.922       .   S
Zn70        O79 1.922       .   S
Zn70        O86 1.922       .   S
Zn71        O74 1.942       .   S
Zn71        O76 1.922       .   S
Zn71        O78 1.922       .   S
Zn71        O82 1.922       .   S
Zn72        O74 1.942       .   S
Zn72        O77 1.922       .   S
Zn72        O80 1.922       .   S
Zn72        O83 1.922       .   S
Zn73        O74 1.942       .   S
Zn73        O81 1.922       .   S
Zn73        O84 1.922       .   S
Zn73        O85 1.922       .   S
O75         C87 1.304       .   A
O76         C88 1.304       .   A
O77         C89 1.304       .   A
O78         C87 1.304       .   A
O79         C89 1.304       .   A
O80         C88 1.304       .   A
O81         C90 1.304       .   A
O82         C91 1.304       .   A
O83         C90 1.304       .   A
O84         C91 1.304       .   A
O85         C92 1.304       .   A
O86         C92 1.304       .   A
C87        C744 1.540   1_556   S
C88        C843 1.540       .   S
C89        C561 1.540       .   S
C90        C655 1.540       .   S
C91        C608 1.540   1_565   S
C92        C932 1.540       .   S
Zn93        O97 1.942       .   S
Zn93        O98 1.922       .   S
Zn93       O102 1.922       .   S
Zn93       O109 1.922       .   S
Zn94        O97 1.942       .   S
Zn94        O99 1.922       .   S
Zn94       O101 1.922       .   S
Zn94       O105 1.922       .   S
Zn95        O97 1.942       .   S
Zn95       O100 1.922       .   S
Zn95       O103 1.922       .   S
Zn95       O106 1.922       .   S
Zn96        O97 1.942       .   S
Zn96       O104 1.922       .   S
Zn96       O107 1.922       .   S
Zn96       O108 1.922       .   S
O98        C110 1.304       .   A
O99        C111 1.304       .   A
O100       C112 1.304       .   A
O101       C110 1.304       .   A
O102       C112 1.304       .   A
O103       C111 1.304       .   A
O104       C113 1.304       .   A
O105       C114 1.304       .   A
O106       C113 1.304       .   A
O107       C114 1.304       .   A
O108       C115 1.304       .   A
O109       C115 1.304       .   A
C110       C279 1.540   1_565   S
C111       C937 1.540       .   S
C112      C1120 1.540       .   S
C113       C326 1.540   1_665   S
C114      C1073 1.540       .   S
C115       C984 1.540       .   S
Zn116      O120 1.942       .   S
Zn116      O121 1.922       .   S
Zn116      O125 1.922       .   S
Zn116      O132 1.922       .   S
Zn117      O120 1.942       .   S
Zn117      O122 1.922       .   S
Zn117      O124 1.922       .   S
Zn117      O128 1.922       .   S
Zn118      O120 1.942       .   S
Zn118      O123 1.922       .   S
Zn118      O126 1.922       .   S
Zn118      O129 1.922       .   S
Zn119      O120 1.942       .   S
Zn119      O127 1.922       .   S
Zn119      O130 1.922       .   S
Zn119      O131 1.922       .   S
O121       C133 1.304       .   A
O122       C134 1.304       .   A
O123       C135 1.304       .   A
O124       C133 1.304       .   A
O125       C135 1.304       .   A
O126       C134 1.304       .   A
O127       C136 1.304       .   A
O128       C137 1.304       .   A
O129       C136 1.304       .   A
O130       C137 1.304       .   A
O131       C138 1.304       .   A
O132       C138 1.304       .   A
C133      C1167 1.540       .   S
C134      C1026 1.540   1_556   S
C135       C509 1.540   1_465   S
C136      C1214 1.540       .   S
C137       C556 1.540   1_565   S
C138       C979 1.540       .   S
Zn139      O143 1.942       .   S
Zn139      O144 1.922       .   S
Zn139      O148 1.922       .   S
Zn139      O155 1.922       .   S
Zn140      O143 1.942       .   S
Zn140      O145 1.922       .   S
Zn140      O147 1.922       .   S
Zn140      O151 1.922       .   S
Zn141      O143 1.942       .   S
Zn141      O146 1.922       .   S
Zn141      O149 1.922       .   S
Zn141      O152 1.922       .   S
Zn142      O143 1.942       .   S
Zn142      O150 1.922       .   S
Zn142      O153 1.922       .   S
Zn142      O154 1.922       .   S
O144       C156 1.304       .   A
O145       C157 1.304       .   A
O146       C158 1.304       .   A
O147       C156 1.304       .   A
O148       C158 1.304       .   A
O149       C157 1.304       .   A
O150       C159 1.304       .   A
O151       C160 1.304       .   A
O152       C159 1.304       .   A
O153       C160 1.304       .   A
O154       C161 1.304       .   A
O155       C161 1.304       .   A
C156       C791 1.540   1_455   S
C157      C1078 1.540       .   S
C158      C1219 1.540       .   S
C159       C796 1.540       .   S
C160      C1266 1.540       .   S
C161      C1031 1.540   1_545   S
Zn162      O166 1.942       .   S
Zn162      O167 1.922       .   S
Zn162      O171 1.922       .   S
Zn162      O178 1.922       .   S
Zn163      O166 1.942       .   S
Zn163      O168 1.922       .   S
Zn163      O170 1.922       .   S
Zn163      O174 1.922       .   S
Zn164      O166 1.942       .   S
Zn164      O169 1.922       .   S
Zn164      O172 1.922       .   S
Zn164      O175 1.922       .   S
Zn165      O166 1.942       .   S
Zn165      O173 1.922       .   S
Zn165      O176 1.922       .   S
Zn165      O177 1.922       .   S
O167       C179 1.304       .   A
O168       C180 1.304       .   A
O169       C181 1.304       .   A
O170       C179 1.304       .   A
O171       C181 1.304       .   A
O172       C180 1.304       .   A
O173       C182 1.304       .   A
O174       C183 1.304       .   A
O175       C182 1.304       .   A
O176       C183 1.304       .   A
O177       C184 1.304       .   A
O178       C184 1.304       .   A
C179       C885 1.540   1_455   S
C180      C1172 1.540       .   S
C181      C1308 1.540   1_556   S
C182       C890 1.540       .   S
C183      C1261 1.540       .   S
C184      C1125 1.540   1_545   S
C1266     C1267 0.023       .   A
C1266     C1271 0.023       .   A
C1267     C1268 0.022       .   A
C1267     H1274 0.018       .   A
C1268     C1269 0.023       .   A
C1268     N1273 0.023       .   A
C1269     C1270 0.023       .   A
C1269     C1272 0.023       .   A
C1270     C1271 0.023       .   A
C1270     C1276 0.023       .   A
C1271     C1275 0.023       .   A
C1272     C1293 0.023       .   A
C1272     C1294 0.023       .   A
N1273     H1283 0.017       .   A
N1273     H1284 0.017       .   A
C1275     C1278 0.022       .   A
C1275     H1282 0.018       .   A
C1276     C1277 0.022       .   A
C1276     N1279 0.023       .   A
C1277     C1278 0.022       .   A
C1277     H1280 0.018       .   A
C1278     H1281 0.018       .   A
N1279     H1295 0.017       .   A
N1279     H1296 0.017       .   A
C1285     C1286 0.023       .   A
C1285     H1290 0.018       .   A
C1285     C1293 0.023       .   A
C1286     C1287 0.023       .   A
C1286     C1288 0.023       .   A
C1287     H1289 0.018       .   A
C1287     C1294 0.022       .   A
C1288     C1297 0.023       .   A
C1288     C1301 0.023       .   A
H1291     C1293 0.018       .   A
H1292     C1294 0.018       .   A
C1297     N1298 0.022       .   A
C1297     H1303 0.018       .   A
N1298     C1299 0.022       .   A
C1299     C1300 0.023       .   A
C1300     C1301 0.022       .   A
C1300     H1305 0.018       .   A
C1301     H1304 0.018       .   A
N1306     C1307 0.022       .   A
C1307     C1308 0.023       .   A
C1307     H1313 0.018       .   A
C1308     C1309 0.023       .   A
C1309     C1310 0.023       .   A
C1309     H1312 0.018       .   A
C1310     H1311 0.018       .   A
C1219     C1220 0.023       .   A
C1219     C1224 0.023       .   A
C1220     C1221 0.022       .   A
C1220     H1227 0.018       .   A
C1221     C1222 0.023       .   A
C1221     N1226 0.023       .   A
C1222     C1223 0.023       .   A
C1222     C1225 0.023       .   A
C1223     C1224 0.023       .   A
C1223     C1229 0.023       .   A
C1224     C1228 0.023       .   A
C1225     C1246 0.023       .   A
C1225     C1247 0.023       .   A
N1226     H1236 0.017       .   A
N1226     H1237 0.017       .   A
C1228     C1231 0.022       .   A
C1228     H1235 0.018       .   A
C1229     C1230 0.022       .   A
C1229     N1232 0.023       .   A
C1230     C1231 0.022       .   A
C1230     H1233 0.018       .   A
C1231     H1234 0.018       .   A
N1232     H1248 0.017       .   A
N1232     H1249 0.017       .   A
C1238     C1239 0.023       .   A
C1238     H1243 0.018       .   A
C1238     C1246 0.023       .   A
C1239     C1240 0.023       .   A
C1239     C1241 0.023       .   A
C1240     H1242 0.018       .   A
C1240     C1247 0.022       .   A
C1241     C1250 0.023       .   A
C1241     C1254 0.023       .   A
H1244     C1246 0.018       .   A
H1245     C1247 0.018       .   A
C1250     N1251 0.022       .   A
C1250     H1256 0.018       .   A
N1251     C1252 0.022       .   A
C1252     C1253 0.023       .   A
C1253     C1254 0.022       .   A
C1253     H1258 0.018       .   A
C1254     H1257 0.018       .   A
N1259     C1260 0.022       .   A
C1260     C1261 0.023       .   A
C1260     H1266 0.018       .   A
C1261     C1262 0.023       .   A
C1262     C1263 0.023       .   A
C1262     H1265 0.018       .   A
C1263     H1264 0.018       .   A
C1172     C1173 0.023       .   A
C1172     C1177 0.023       .   A
C1173     C1174 0.022       .   A
C1173     H1180 0.018       .   A
C1174     C1175 0.023       .   A
C1174     N1179 0.023       .   A
C1175     C1176 0.023       .   A
C1175     C1178 0.023       .   A
C1176     C1177 0.023       .   A
C1176     C1182 0.023       .   A
C1177     C1181 0.023       .   A
C1178     C1199 0.023       .   A
C1178     C1200 0.023       .   A
N1179     H1189 0.017       .   A
N1179     H1190 0.017       .   A
C1181     C1184 0.022       .   A
C1181     H1188 0.018       .   A
C1182     C1183 0.022       .   A
C1182     N1185 0.023       .   A
C1183     C1184 0.022       .   A
C1183     H1186 0.018       .   A
C1184     H1187 0.018       .   A
N1185     H1201 0.017       .   A
N1185     H1202 0.017       .   A
C1191     C1192 0.023       .   A
C1191     H1196 0.018       .   A
C1191     C1199 0.023       .   A
C1192     C1193 0.023       .   A
C1192     C1194 0.023       .   A
C1193     H1195 0.018       .   A
C1193     C1200 0.022       .   A
C1194     C1203 0.023       .   A
C1194     C1207 0.023       .   A
H1197     C1199 0.018       .   A
H1198     C1200 0.018       .   A
C1203     N1204 0.022       .   A
C1203     H1209 0.018       .   A
N1204     C1205 0.022       .   A
C1205     C1206 0.023       .   A
C1206     C1207 0.022       .   A
C1206     H1211 0.018       .   A
C1207     H1210 0.018       .   A
N1212     C1213 0.022       .   A
C1213     C1214 0.023       .   A
C1213     H1219 0.018       .   A
C1214     C1215 0.023       .   A
C1215     C1216 0.023       .   A
C1215     H1218 0.018       .   A
C1216     H1217 0.018       .   A
C1125     C1126 0.023       .   A
C1125     C1130 0.023       .   A
C1126     C1127 0.022       .   A
C1126     H1133 0.018       .   A
C1127     C1128 0.023       .   A
C1127     N1132 0.023       .   A
C1128     C1129 0.023       .   A
C1128     C1131 0.023       .   A
C1129     C1130 0.023       .   A
C1129     C1135 0.023       .   A
C1130     C1134 0.023       .   A
C1131     C1152 0.023       .   A
C1131     C1153 0.023       .   A
N1132     H1142 0.017       .   A
N1132     H1143 0.017       .   A
C1134     C1137 0.022       .   A
C1134     H1141 0.018       .   A
C1135     C1136 0.022       .   A
C1135     N1138 0.023       .   A
C1136     C1137 0.022       .   A
C1136     H1139 0.018       .   A
C1137     H1140 0.018       .   A
N1138     H1154 0.017       .   A
N1138     H1155 0.017       .   A
C1144     C1145 0.023       .   A
C1144     H1149 0.018       .   A
C1144     C1152 0.023       .   A
C1145     C1146 0.023       .   A
C1145     C1147 0.023       .   A
C1146     H1148 0.018       .   A
C1146     C1153 0.022       .   A
C1147     C1156 0.023       .   A
C1147     C1160 0.023       .   A
H1150     C1152 0.018       .   A
H1151     C1153 0.018       .   A
C1156     N1157 0.022       .   A
C1156     H1162 0.018       .   A
N1157     C1158 0.022       .   A
C1158     C1159 0.023       .   A
C1159     C1160 0.022       .   A
C1159     H1164 0.018       .   A
C1160     H1163 0.018       .   A
N1165     C1166 0.022       .   A
C1166     C1167 0.023       .   A
C1166     H1172 0.018       .   A
C1167     C1168 0.023       .   A
C1168     C1169 0.023       .   A
C1168     H1171 0.018       .   A
C1169     H1170 0.018       .   A
C1078     C1079 0.023       .   A
C1078     C1083 0.023       .   A
C1079     C1080 0.022       .   A
C1079     H1086 0.018       .   A
C1080     C1081 0.023       .   A
C1080     N1085 0.023       .   A
C1081     C1082 0.023       .   A
C1081     C1084 0.023       .   A
C1082     C1083 0.023       .   A
C1082     C1088 0.023       .   A
C1083     C1087 0.023       .   A
C1084     C1105 0.023       .   A
C1084     C1106 0.023       .   A
N1085     H1095 0.017       .   A
N1085     H1096 0.017       .   A
C1087     C1090 0.022       .   A
C1087     H1094 0.018       .   A
C1088     C1089 0.022       .   A
C1088     N1091 0.023       .   A
C1089     C1090 0.022       .   A
C1089     H1092 0.018       .   A
C1090     H1093 0.018       .   A
N1091     H1107 0.017       .   A
N1091     H1108 0.017       .   A
C1097     C1098 0.023       .   A
C1097     H1102 0.018       .   A
C1097     C1105 0.023       .   A
C1098     C1099 0.023       .   A
C1098     C1100 0.023       .   A
C1099     H1101 0.018       .   A
C1099     C1106 0.022       .   A
C1100     C1109 0.023       .   A
C1100     C1113 0.023       .   A
H1103     C1105 0.018       .   A
H1104     C1106 0.018       .   A
C1109     N1110 0.022       .   A
C1109     H1115 0.018       .   A
N1110     C1111 0.022       .   A
C1111     C1112 0.023       .   A
C1112     C1113 0.022       .   A
C1112     H1117 0.018       .   A
C1113     H1116 0.018       .   A
N1118     C1119 0.022       .   A
C1119     C1120 0.023       .   A
C1119     H1125 0.018       .   A
C1120     C1121 0.023       .   A
C1121     C1122 0.023       .   A
C1121     H1124 0.018       .   A
C1122     H1123 0.018       .   A
C1031     C1032 0.023       .   A
C1031     C1036 0.023       .   A
C1032     C1033 0.022       .   A
C1032     H1039 0.018       .   A
C1033     C1034 0.023       .   A
C1033     N1038 0.023       .   A
C1034     C1035 0.023       .   A
C1034     C1037 0.023       .   A
C1035     C1036 0.023       .   A
C1035     C1041 0.023       .   A
C1036     C1040 0.023       .   A
C1037     C1058 0.023       .   A
C1037     C1059 0.023       .   A
N1038     H1048 0.017       .   A
N1038     H1049 0.017       .   A
C1040     C1043 0.022       .   A
C1040     H1047 0.018       .   A
C1041     C1042 0.022       .   A
C1041     N1044 0.023       .   A
C1042     C1043 0.022       .   A
C1042     H1045 0.018       .   A
C1043     H1046 0.018       .   A
N1044     H1060 0.017       .   A
N1044     H1061 0.017       .   A
C1050     C1051 0.023       .   A
C1050     H1055 0.018       .   A
C1050     C1058 0.023       .   A
C1051     C1052 0.023       .   A
C1051     C1053 0.023       .   A
C1052     H1054 0.018       .   A
C1052     C1059 0.022       .   A
C1053     C1062 0.023       .   A
C1053     C1066 0.023       .   A
H1056     C1058 0.018       .   A
H1057     C1059 0.018       .   A
C1062     N1063 0.022       .   A
C1062     H1068 0.018       .   A
N1063     C1064 0.022       .   A
C1064     C1065 0.023       .   A
C1065     C1066 0.022       .   A
C1065     H1070 0.018       .   A
C1066     H1069 0.018       .   A
N1071     C1072 0.022       .   A
C1072     C1073 0.023       .   A
C1072     H1078 0.018       .   A
C1073     C1074 0.023       .   A
C1074     C1075 0.023       .   A
C1074     H1077 0.018       .   A
C1075     H1076 0.018       .   A
C984       C985 0.023       .   A
C984       C989 0.023       .   A
C985       C986 0.022       .   A
C985       H992 0.018       .   A
C986       C987 0.023       .   A
C986       N991 0.023       .   A
C987       C988 0.023       .   A
C987       C990 0.023       .   A
C988       C989 0.023       .   A
C988       C994 0.023       .   A
C989       C993 0.023       .   A
C990      C1011 0.023       .   A
C990      C1012 0.023       .   A
N991      H1001 0.017       .   A
N991      H1002 0.017       .   A
C993       C996 0.022       .   A
C993      H1000 0.018       .   A
C994       C995 0.022       .   A
C994       N997 0.023       .   A
C995       C996 0.022       .   A
C995       H998 0.018       .   A
C996       H999 0.018       .   A
N997      H1013 0.017       .   A
N997      H1014 0.017       .   A
C1003     C1004 0.023       .   A
C1003     H1008 0.018       .   A
C1003     C1011 0.023       .   A
C1004     C1005 0.023       .   A
C1004     C1006 0.023       .   A
C1005     H1007 0.018       .   A
C1005     C1012 0.022       .   A
C1006     C1015 0.023       .   A
C1006     C1019 0.023       .   A
H1009     C1011 0.018       .   A
H1010     C1012 0.018       .   A
C1015     N1016 0.022       .   A
C1015     H1021 0.018       .   A
N1016     C1017 0.022       .   A
C1017     C1018 0.023       .   A
C1018     C1019 0.022       .   A
C1018     H1023 0.018       .   A
C1019     H1022 0.018       .   A
N1024     C1025 0.022       .   A
C1025     C1026 0.023       .   A
C1025     H1031 0.018       .   A
C1026     C1027 0.023       .   A
C1027     C1028 0.023       .   A
C1027     H1030 0.018       .   A
C1028     H1029 0.018       .   A
C937       C938 0.023       .   A
C937       C942 0.023       .   A
C938       C939 0.022       .   A
C938       H945 0.018       .   A
C939       C940 0.023       .   A
C939       N944 0.023       .   A
C940       C941 0.023       .   A
C940       C943 0.023       .   A
C941       C942 0.023       .   A
C941       C947 0.023       .   A
C942       C946 0.023       .   A
C943       C964 0.023       .   A
C943       C965 0.023       .   A
N944       H954 0.017       .   A
N944       H955 0.017       .   A
C946       C949 0.022       .   A
C946       H953 0.018       .   A
C947       C948 0.022       .   A
C947       N950 0.023       .   A
C948       C949 0.022       .   A
C948       H951 0.018       .   A
C949       H952 0.018       .   A
N950       H966 0.017       .   A
N950       H967 0.017       .   A
C956       C957 0.023       .   A
C956       H961 0.018       .   A
C956       C964 0.023       .   A
C957       C958 0.023       .   A
C957       C959 0.023       .   A
C958       H960 0.018       .   A
C958       C965 0.022       .   A
C959       C968 0.023       .   A
C959       C972 0.023       .   A
H962       C964 0.018       .   A
H963       C965 0.018       .   A
C968       N969 0.022       .   A
C968       H974 0.018       .   A
N969       C970 0.022       .   A
C970       C971 0.023       .   A
C971       C972 0.022       .   A
C971       H976 0.018       .   A
C972       H975 0.018       .   A
N977       C978 0.022       .   A
C978       C979 0.023       .   A
C978       H984 0.018       .   A
C979       C980 0.023       .   A
C980       C981 0.023       .   A
C980       H983 0.018       .   A
C981       H982 0.018       .   A
C890       C891 0.023       .   A
C890       C895 0.023       .   A
C891       C892 0.022       .   A
C891       H898 0.018       .   A
C892       C893 0.023       .   A
C892       N897 0.023       .   A
C893       C894 0.023       .   A
C893       C896 0.023       .   A
C894       C895 0.023       .   A
C894       C900 0.023       .   A
C895       C899 0.023       .   A
C896       C917 0.023       .   A
C896       C918 0.023       .   A
N897       H907 0.017       .   A
N897       H908 0.017       .   A
C899       C902 0.022       .   A
C899       H906 0.018       .   A
C900       C901 0.022       .   A
C900       N903 0.023       .   A
C901       C902 0.022       .   A
C901       H904 0.018       .   A
C902       H905 0.018       .   A
N903       H919 0.017       .   A
N903       H920 0.017       .   A
C909       C910 0.023       .   A
C909       H914 0.018       .   A
C909       C917 0.023       .   A
C910       C911 0.023       .   A
C910       C912 0.023       .   A
C911       H913 0.018       .   A
C911       C918 0.022       .   A
C912       C921 0.023       .   A
C912       C925 0.023       .   A
H915       C917 0.018       .   A
H916       C918 0.018       .   A
C921       N922 0.022       .   A
C921       H927 0.018       .   A
N922       C923 0.022       .   A
C923       C924 0.023       .   A
C924       C925 0.022       .   A
C924       H929 0.018       .   A
C925       H928 0.018       .   A
N930       C931 0.022       .   A
C931       C932 0.023       .   A
C931       H937 0.018       .   A
C932       C933 0.023       .   A
C933       C934 0.023       .   A
C933       H936 0.018       .   A
C934       H935 0.018       .   A
C843       C844 0.023       .   A
C843       C848 0.023       .   A
C844       C845 0.022       .   A
C844       H851 0.018       .   A
C845       C846 0.023       .   A
C845       N850 0.023       .   A
C846       C847 0.023       .   A
C846       C849 0.023       .   A
C847       C848 0.023       .   A
C847       C853 0.023       .   A
C848       C852 0.023       .   A
C849       C870 0.023       .   A
C849       C871 0.023       .   A
N850       H860 0.017       .   A
N850       H861 0.017       .   A
C852       C855 0.022       .   A
C852       H859 0.018       .   A
C853       C854 0.022       .   A
C853       N856 0.023       .   A
C854       C855 0.022       .   A
C854       H857 0.018       .   A
C855       H858 0.018       .   A
N856       H872 0.017       .   A
N856       H873 0.017       .   A
C862       C863 0.023       .   A
C862       H867 0.018       .   A
C862       C870 0.023       .   A
C863       C864 0.023       .   A
C863       C865 0.023       .   A
C864       H866 0.018       .   A
C864       C871 0.022       .   A
C865       C874 0.023       .   A
C865       C878 0.023       .   A
H868       C870 0.018       .   A
H869       C871 0.018       .   A
C874       N875 0.022       .   A
C874       H880 0.018       .   A
N875       C876 0.022       .   A
C876       C877 0.023       .   A
C877       C878 0.022       .   A
C877       H882 0.018       .   A
C878       H881 0.018       .   A
N883       C884 0.022       .   A
C884       C885 0.023       .   A
C884       H890 0.018       .   A
C885       C886 0.023       .   A
C886       C887 0.023       .   A
C886       H889 0.018       .   A
C887       H888 0.018       .   A
C796       C797 0.023       .   A
C796       C801 0.023       .   A
C797       C798 0.022       .   A
C797       H804 0.018       .   A
C798       C799 0.023       .   A
C798       N803 0.023       .   A
C799       C800 0.023       .   A
C799       C802 0.023       .   A
C800       C801 0.023       .   A
C800       C806 0.023       .   A
C801       C805 0.023       .   A
C802       C823 0.023       .   A
C802       C824 0.023       .   A
N803       H813 0.017       .   A
N803       H814 0.017       .   A
C805       C808 0.022       .   A
C805       H812 0.018       .   A
C806       C807 0.022       .   A
C806       N809 0.023       .   A
C807       C808 0.022       .   A
C807       H810 0.018       .   A
C808       H811 0.018       .   A
N809       H825 0.017       .   A
N809       H826 0.017       .   A
C815       C816 0.023       .   A
C815       H820 0.018       .   A
C815       C823 0.023       .   A
C816       C817 0.023       .   A
C816       C818 0.023       .   A
C817       H819 0.018       .   A
C817       C824 0.022       .   A
C818       C827 0.023       .   A
C818       C831 0.023       .   A
H821       C823 0.018       .   A
H822       C824 0.018       .   A
C827       N828 0.022       .   A
C827       H833 0.018       .   A
N828       C829 0.022       .   A
C829       C830 0.023       .   A
C830       C831 0.022       .   A
C830       H835 0.018       .   A
C831       H834 0.018       .   A
N836       C837 0.022       .   A
C837       C838 0.023       .   A
C837       H843 0.018       .   A
C838       C839 0.023       .   A
C839       C840 0.023       .   A
C839       H842 0.018       .   A
C840       H841 0.018       .   A
C749       C750 0.023       .   A
C749       C754 0.023       .   A
C750       C751 0.022       .   A
C750       H757 0.018       .   A
C751       C752 0.023       .   A
C751       N756 0.023       .   A
C752       C753 0.023       .   A
C752       C755 0.023       .   A
C753       C754 0.023       .   A
C753       C759 0.023       .   A
C754       C758 0.023       .   A
C755       C776 0.023       .   A
C755       C777 0.023       .   A
N756       H766 0.017       .   A
N756       H767 0.017       .   A
C758       C761 0.022       .   A
C758       H765 0.018       .   A
C759       C760 0.022       .   A
C759       N762 0.023       .   A
C760       C761 0.022       .   A
C760       H763 0.018       .   A
C761       H764 0.018       .   A
N762       H778 0.017       .   A
N762       H779 0.017       .   A
C768       C769 0.023       .   A
C768       H773 0.018       .   A
C768       C776 0.023       .   A
C769       C770 0.023       .   A
C769       C771 0.023       .   A
C770       H772 0.018       .   A
C770       C777 0.022       .   A
C771       C780 0.023       .   A
C771       C784 0.023       .   A
H774       C776 0.018       .   A
H775       C777 0.018       .   A
C780       N781 0.022       .   A
C780       H786 0.018       .   A
N781       C782 0.022       .   A
C782       C783 0.023       .   A
C783       C784 0.022       .   A
C783       H788 0.018       .   A
C784       H787 0.018       .   A
N789       C790 0.022       .   A
C790       C791 0.023       .   A
C790       H796 0.018       .   A
C791       C792 0.023       .   A
C792       C793 0.023       .   A
C792       H795 0.018       .   A
C793       H794 0.018       .   A
C702       C703 0.023       .   A
C702       C707 0.023       .   A
C703       C704 0.022       .   A
C703       H710 0.018       .   A
C704       C705 0.023       .   A
C704       N709 0.023       .   A
C705       C706 0.023       .   A
C705       C708 0.023       .   A
C706       C707 0.023       .   A
C706       C712 0.023       .   A
C707       C711 0.023       .   A
C708       C729 0.023       .   A
C708       C730 0.023       .   A
N709       H719 0.017       .   A
N709       H720 0.017       .   A
C711       C714 0.022       .   A
C711       H718 0.018       .   A
C712       C713 0.022       .   A
C712       N715 0.023       .   A
C713       C714 0.022       .   A
C713       H716 0.018       .   A
C714       H717 0.018       .   A
N715       H731 0.017       .   A
N715       H732 0.017       .   A
C721       C722 0.023       .   A
C721       H726 0.018       .   A
C721       C729 0.023       .   A
C722       C723 0.023       .   A
C722       C724 0.023       .   A
C723       H725 0.018       .   A
C723       C730 0.022       .   A
C724       C733 0.023       .   A
C724       C737 0.023       .   A
H727       C729 0.018       .   A
H728       C730 0.018       .   A
C733       N734 0.022       .   A
C733       H739 0.018       .   A
N734       C735 0.022       .   A
C735       C736 0.023       .   A
C736       C737 0.022       .   A
C736       H741 0.018       .   A
C737       H740 0.018       .   A
N742       C743 0.022       .   A
C743       C744 0.023       .   A
C743       H749 0.018       .   A
C744       C745 0.023       .   A
C745       C746 0.023       .   A
C745       H748 0.018       .   A
C746       H747 0.018       .   A
C655       C656 0.023       .   A
C655       C660 0.023       .   A
C656       C657 0.022       .   A
C656       H663 0.018       .   A
C657       C658 0.023       .   A
C657       N662 0.023       .   A
C658       C659 0.023       .   A
C658       C661 0.023       .   A
C659       C660 0.023       .   A
C659       C665 0.023       .   A
C660       C664 0.023       .   A
C661       C682 0.023       .   A
C661       C683 0.023       .   A
N662       H672 0.017       .   A
N662       H673 0.017       .   A
C664       C667 0.022       .   A
C664       H671 0.018       .   A
C665       C666 0.022       .   A
C665       N668 0.023       .   A
C666       C667 0.022       .   A
C666       H669 0.018       .   A
C667       H670 0.018       .   A
N668       H684 0.017       .   A
N668       H685 0.017       .   A
C674       C675 0.023       .   A
C674       H679 0.018       .   A
C674       C682 0.023       .   A
C675       C676 0.023       .   A
C675       C677 0.023       .   A
C676       H678 0.018       .   A
C676       C683 0.022       .   A
C677       C686 0.023       .   A
C677       C690 0.023       .   A
H680       C682 0.018       .   A
H681       C683 0.018       .   A
C686       N687 0.022       .   A
C686       H692 0.018       .   A
N687       C688 0.022       .   A
C688       C689 0.023       .   A
C689       C690 0.022       .   A
C689       H694 0.018       .   A
C690       H693 0.018       .   A
N695       C696 0.022       .   A
C696       C697 0.023       .   A
C696       H702 0.018       .   A
C697       C698 0.023       .   A
C698       C699 0.023       .   A
C698       H701 0.018       .   A
C699       H700 0.018       .   A
C608       C609 0.023       .   A
C608       C613 0.023       .   A
C609       C610 0.022       .   A
C609       H616 0.018       .   A
C610       C611 0.023       .   A
C610       N615 0.023       .   A
C611       C612 0.023       .   A
C611       C614 0.023       .   A
C612       C613 0.023       .   A
C612       C618 0.023       .   A
C613       C617 0.023       .   A
C614       C635 0.023       .   A
C614       C636 0.023       .   A
N615       H625 0.017       .   A
N615       H626 0.017       .   A
C617       C620 0.022       .   A
C617       H624 0.018       .   A
C618       C619 0.022       .   A
C618       N621 0.023       .   A
C619       C620 0.022       .   A
C619       H622 0.018       .   A
C620       H623 0.018       .   A
N621       H637 0.017       .   A
N621       H638 0.017       .   A
C627       C628 0.023       .   A
C627       H632 0.018       .   A
C627       C635 0.023       .   A
C628       C629 0.023       .   A
C628       C630 0.023       .   A
C629       H631 0.018       .   A
C629       C636 0.022       .   A
C630       C639 0.023       .   A
C630       C643 0.023       .   A
H633       C635 0.018       .   A
H634       C636 0.018       .   A
C639       N640 0.022       .   A
C639       H645 0.018       .   A
N640       C641 0.022       .   A
C641       C642 0.023       .   A
C642       C643 0.022       .   A
C642       H647 0.018       .   A
C643       H646 0.018       .   A
N648       C649 0.022       .   A
C649       C650 0.023       .   A
C649       H655 0.018       .   A
C650       C651 0.023       .   A
C651       C652 0.023       .   A
C651       H654 0.018       .   A
C652       H653 0.018       .   A
C561       C562 0.023       .   A
C561       C566 0.023       .   A
C562       C563 0.022       .   A
C562       H569 0.018       .   A
C563       C564 0.023       .   A
C563       N568 0.023       .   A
C564       C565 0.023       .   A
C564       C567 0.023       .   A
C565       C566 0.023       .   A
C565       C571 0.023       .   A
C566       C570 0.023       .   A
C567       C588 0.023       .   A
C567       C589 0.023       .   A
N568       H578 0.017       .   A
N568       H579 0.017       .   A
C570       C573 0.022       .   A
C570       H577 0.018       .   A
C571       C572 0.022       .   A
C571       N574 0.023       .   A
C572       C573 0.022       .   A
C572       H575 0.018       .   A
C573       H576 0.018       .   A
N574       H590 0.017       .   A
N574       H591 0.017       .   A
C580       C581 0.023       .   A
C580       H585 0.018       .   A
C580       C588 0.023       .   A
C581       C582 0.023       .   A
C581       C583 0.023       .   A
C582       H584 0.018       .   A
C582       C589 0.022       .   A
C583       C592 0.023       .   A
C583       C596 0.023       .   A
H586       C588 0.018       .   A
H587       C589 0.018       .   A
C592       N593 0.022       .   A
C592       H598 0.018       .   A
N593       C594 0.022       .   A
C594       C595 0.023       .   A
C595       C596 0.022       .   A
C595       H600 0.018       .   A
C596       H599 0.018       .   A
N601       C602 0.022       .   A
C602       C603 0.023       .   A
C602       H608 0.018       .   A
C603       C604 0.023       .   A
C604       C605 0.023       .   A
C604       H607 0.018       .   A
C605       H606 0.018       .   A
C514       C515 0.023       .   A
C514       C519 0.023       .   A
C515       C516 0.022       .   A
C515       H522 0.018       .   A
C516       C517 0.023       .   A
C516       N521 0.023       .   A
C517       C518 0.023       .   A
C517       C520 0.023       .   A
C518       C519 0.023       .   A
C518       C524 0.023       .   A
C519       C523 0.023       .   A
C520       C541 0.023       .   A
C520       C542 0.023       .   A
N521       H531 0.017       .   A
N521       H532 0.017       .   A
C523       C526 0.022       .   A
C523       H530 0.018       .   A
C524       C525 0.022       .   A
C524       N527 0.023       .   A
C525       C526 0.022       .   A
C525       H528 0.018       .   A
C526       H529 0.018       .   A
N527       H543 0.017       .   A
N527       H544 0.017       .   A
C533       C534 0.023       .   A
C533       H538 0.018       .   A
C533       C541 0.023       .   A
C534       C535 0.023       .   A
C534       C536 0.023       .   A
C535       H537 0.018       .   A
C535       C542 0.022       .   A
C536       C545 0.023       .   A
C536       C549 0.023       .   A
H539       C541 0.018       .   A
H540       C542 0.018       .   A
C545       N546 0.022       .   A
C545       H551 0.018       .   A
N546       C547 0.022       .   A
C547       C548 0.023       .   A
C548       C549 0.022       .   A
C548       H553 0.018       .   A
C549       H552 0.018       .   A
N554       C555 0.022       .   A
C555       C556 0.023       .   A
C555       H561 0.018       .   A
C556       C557 0.023       .   A
C557       C558 0.023       .   A
C557       H560 0.018       .   A
C558       H559 0.018       .   A
C467       C468 0.023       .   A
C467       C472 0.023       .   A
C468       C469 0.022       .   A
C468       H475 0.018       .   A
C469       C470 0.023       .   A
C469       N474 0.023       .   A
C470       C471 0.023       .   A
C470       C473 0.023       .   A
C471       C472 0.023       .   A
C471       C477 0.023       .   A
C472       C476 0.023       .   A
C473       C494 0.023       .   A
C473       C495 0.023       .   A
N474       H484 0.017       .   A
N474       H485 0.017       .   A
C476       C479 0.022       .   A
C476       H483 0.018       .   A
C477       C478 0.022       .   A
C477       N480 0.023       .   A
C478       C479 0.022       .   A
C478       H481 0.018       .   A
C479       H482 0.018       .   A
N480       H496 0.017       .   A
N480       H497 0.017       .   A
C486       C487 0.023       .   A
C486       H491 0.018       .   A
C486       C494 0.023       .   A
C487       C488 0.023       .   A
C487       C489 0.023       .   A
C488       H490 0.018       .   A
C488       C495 0.022       .   A
C489       C498 0.023       .   A
C489       C502 0.023       .   A
H492       C494 0.018       .   A
H493       C495 0.018       .   A
C498       N499 0.022       .   A
C498       H504 0.018       .   A
N499       C500 0.022       .   A
C500       C501 0.023       .   A
C501       C502 0.022       .   A
C501       H506 0.018       .   A
C502       H505 0.018       .   A
N507       C508 0.022       .   A
C508       C509 0.023       .   A
C508       H514 0.018       .   A
C509       C510 0.023       .   A
C510       C511 0.023       .   A
C510       H513 0.018       .   A
C511       H512 0.018       .   A
C420       C421 0.023       .   A
C420       C425 0.023       .   A
C421       C422 0.022       .   A
C421       H428 0.018       .   A
C422       C423 0.023       .   A
C422       N427 0.023       .   A
C423       C424 0.023       .   A
C423       C426 0.023       .   A
C424       C425 0.023       .   A
C424       C430 0.023       .   A
C425       C429 0.023       .   A
C426       C447 0.023       .   A
C426       C448 0.023       .   A
N427       H437 0.017       .   A
N427       H438 0.017       .   A
C429       C432 0.022       .   A
C429       H436 0.018       .   A
C430       C431 0.022       .   A
C430       N433 0.023       .   A
C431       C432 0.022       .   A
C431       H434 0.018       .   A
C432       H435 0.018       .   A
N433       H449 0.017       .   A
N433       H450 0.017       .   A
C439       C440 0.023       .   A
C439       H444 0.018       .   A
C439       C447 0.023       .   A
C440       C441 0.023       .   A
C440       C442 0.023       .   A
C441       H443 0.018       .   A
C441       C448 0.022       .   A
C442       C451 0.023       .   A
C442       C455 0.023       .   A
H445       C447 0.018       .   A
H446       C448 0.018       .   A
C451       N452 0.022       .   A
C451       H457 0.018       .   A
N452       C453 0.022       .   A
C453       C454 0.023       .   A
C454       C455 0.022       .   A
C454       H459 0.018       .   A
C455       H458 0.018       .   A
N460       C461 0.022       .   A
C461       C462 0.023       .   A
C461       H467 0.018       .   A
C462       C463 0.023       .   A
C463       C464 0.023       .   A
C463       H466 0.018       .   A
C464       H465 0.018       .   A
C373       C374 0.023       .   A
C373       C378 0.023       .   A
C374       C375 0.022       .   A
C374       H381 0.018       .   A
C375       C376 0.023       .   A
C375       N380 0.023       .   A
C376       C377 0.023       .   A
C376       C379 0.023       .   A
C377       C378 0.023       .   A
C377       C383 0.023       .   A
C378       C382 0.023       .   A
C379       C400 0.023       .   A
C379       C401 0.023       .   A
N380       H390 0.017       .   A
N380       H391 0.017       .   A
C382       C385 0.022       .   A
C382       H389 0.018       .   A
C383       C384 0.022       .   A
C383       N386 0.023       .   A
C384       C385 0.022       .   A
C384       H387 0.018       .   A
C385       H388 0.018       .   A
N386       H402 0.017       .   A
N386       H403 0.017       .   A
C392       C393 0.023       .   A
C392       H397 0.018       .   A
C392       C400 0.023       .   A
C393       C394 0.023       .   A
C393       C395 0.023       .   A
C394       H396 0.018       .   A
C394       C401 0.022       .   A
C395       C404 0.023       .   A
C395       C408 0.023       .   A
H398       C400 0.018       .   A
H399       C401 0.018       .   A
C404       N405 0.022       .   A
C404       H410 0.018       .   A
N405       C406 0.022       .   A
C406       C407 0.023       .   A
C407       C408 0.022       .   A
C407       H412 0.018       .   A
C408       H411 0.018       .   A
N413       C414 0.022       .   A
C414       C415 0.023       .   A
C414       H420 0.018       .   A
C415       C416 0.023       .   A
C416       C417 0.023       .   A
C416       H419 0.018       .   A
C417       H418 0.018       .   A
C326       C327 0.023       .   A
C326       C331 0.023       .   A
C327       C328 0.022       .   A
C327       H334 0.018       .   A
C328       C329 0.023       .   A
C328       N333 0.023       .   A
C329       C330 0.023       .   A
C329       C332 0.023       .   A
C330       C331 0.023       .   A
C330       C336 0.023       .   A
C331       C335 0.023       .   A
C332       C353 0.023       .   A
C332       C354 0.023       .   A
N333       H343 0.017       .   A
N333       H344 0.017       .   A
C335       C338 0.022       .   A
C335       H342 0.018       .   A
C336       C337 0.022       .   A
C336       N339 0.023       .   A
C337       C338 0.022       .   A
C337       H340 0.018       .   A
C338       H341 0.018       .   A
N339       H355 0.017       .   A
N339       H356 0.017       .   A
C345       C346 0.023       .   A
C345       H350 0.018       .   A
C345       C353 0.023       .   A
C346       C347 0.023       .   A
C346       C348 0.023       .   A
C347       H349 0.018       .   A
C347       C354 0.022       .   A
C348       C357 0.023       .   A
C348       C361 0.023       .   A
H351       C353 0.018       .   A
H352       C354 0.018       .   A
C357       N358 0.022       .   A
C357       H363 0.018       .   A
N358       C359 0.022       .   A
C359       C360 0.023       .   A
C360       C361 0.022       .   A
C360       H365 0.018       .   A
C361       H364 0.018       .   A
N366       C367 0.022       .   A
C367       C368 0.023       .   A
C367       H373 0.018       .   A
C368       C369 0.023       .   A
C369       C370 0.023       .   A
C369       H372 0.018       .   A
C370       H371 0.018       .   A
C279       C280 0.023       .   A
C279       C284 0.023       .   A
C280       C281 0.022       .   A
C280       H287 0.018       .   A
C281       C282 0.023       .   A
C281       N286 0.023       .   A
C282       C283 0.023       .   A
C282       C285 0.023       .   A
C283       C284 0.023       .   A
C283       C289 0.023       .   A
C284       C288 0.023       .   A
C285       C306 0.023       .   A
C285       C307 0.023       .   A
N286       H296 0.017       .   A
N286       H297 0.017       .   A
C288       C291 0.022       .   A
C288       H295 0.018       .   A
C289       C290 0.022       .   A
C289       N292 0.023       .   A
C290       C291 0.022       .   A
C290       H293 0.018       .   A
C291       H294 0.018       .   A
N292       H308 0.017       .   A
N292       H309 0.017       .   A
C298       C299 0.023       .   A
C298       H303 0.018       .   A
C298       C306 0.023       .   A
C299       C300 0.023       .   A
C299       C301 0.023       .   A
C300       H302 0.018       .   A
C300       C307 0.022       .   A
C301       C310 0.023       .   A
C301       C314 0.023       .   A
H304       C306 0.018       .   A
H305       C307 0.018       .   A
C310       N311 0.022       .   A
C310       H316 0.018       .   A
N311       C312 0.022       .   A
C312       C313 0.023       .   A
C313       C314 0.022       .   A
C313       H318 0.018       .   A
C314       H317 0.018       .   A
N319       C320 0.022       .   A
C320       C321 0.023       .   A
C320       H326 0.018       .   A
C321       C322 0.023       .   A
C322       C323 0.023       .   A
C322       H325 0.018       .   A
C323       H324 0.018       .   A
C232       C233 0.023       .   A
C232       C237 0.023       .   A
C233       C234 0.022       .   A
C233       H240 0.018       .   A
C234       C235 0.023       .   A
C234       N239 0.023       .   A
C235       C236 0.023       .   A
C235       C238 0.023       .   A
C236       C237 0.023       .   A
C236       C242 0.023       .   A
C237       C241 0.023       .   A
C238       C259 0.023       .   A
C238       C260 0.023       .   A
N239       H249 0.017       .   A
N239       H250 0.017       .   A
C241       C244 0.022       .   A
C241       H248 0.018       .   A
C242       C243 0.022       .   A
C242       N245 0.023       .   A
C243       C244 0.022       .   A
C243       H246 0.018       .   A
C244       H247 0.018       .   A
N245       H261 0.017       .   A
N245       H262 0.017       .   A
C251       C252 0.023       .   A
C251       H256 0.018       .   A
C251       C259 0.023       .   A
C252       C253 0.023       .   A
C252       C254 0.023       .   A
C253       H255 0.018       .   A
C253       C260 0.022       .   A
C254       C263 0.023       .   A
C254       C267 0.023       .   A
H257       C259 0.018       .   A
H258       C260 0.018       .   A
C263       N264 0.022       .   A
C263       H269 0.018       .   A
N264       C265 0.022       .   A
C265       C266 0.023       .   A
C266       C267 0.022       .   A
C266       H271 0.018       .   A
C267       H270 0.018       .   A
N272       C273 0.022       .   A
C273       C274 0.023       .   A
C273       H279 0.018       .   A
C274       C275 0.023       .   A
C275       C276 0.023       .   A
C275       H278 0.018       .   A
C276       H277 0.018       .   A
C185       C186 0.023       .   A
C185       C190 0.023       .   A
C186       C187 0.022       .   A
C186       H193 0.018       .   A
C187       C188 0.023       .   A
C187       N192 0.023       .   A
C188       C189 0.023       .   A
C188       C191 0.023       .   A
C189       C190 0.023       .   A
C189       C195 0.023       .   A
C190       C194 0.023       .   A
C191       C212 0.023       .   A
C191       C213 0.023       .   A
N192       H202 0.017       .   A
N192       H203 0.017       .   A
C194       C197 0.022       .   A
C194       H201 0.018       .   A
C195       C196 0.022       .   A
C195       N198 0.023       .   A
C196       C197 0.022       .   A
C196       H199 0.018       .   A
C197       H200 0.018       .   A
N198       H214 0.017       .   A
N198       H215 0.017       .   A
C204       C205 0.023       .   A
C204       H209 0.018       .   A
C204       C212 0.023       .   A
C205       C206 0.023       .   A
C205       C207 0.023       .   A
C206       H208 0.018       .   A
C206       C213 0.022       .   A
C207       C216 0.023       .   A
C207       C220 0.023       .   A
H210       C212 0.018       .   A
H211       C213 0.018       .   A
C216       N217 0.022       .   A
C216       H222 0.018       .   A
N217       C218 0.022       .   A
C218       C219 0.023       .   A
C219       C220 0.022       .   A
C219       H224 0.018       .   A
C220       H223 0.018       .   A
N225       C226 0.022       .   A
C226       C227 0.023       .   A
C226       H232 0.018       .   A
C227       C228 0.023       .   A
C228       C229 0.023       .   A
C228       H231 0.018       .   A
C229       H230 0.018       .   A
