data_pcu_v1-6c_Zn_1_Ch_1-83_fer_tobacco
_audit_creation_date              2021-02-03
_audit_creation_method            'tobacco_3.0'
_symmetry_space_group_name_H-M    'P1'
_symmetry_Int_Tables_number       1
_symmetry_cell_setting            triclinic
loop_
_symmetry_equiv_pos_as_xyz
  x,y,z
_cell_length_a                    48.86441541656235
_cell_length_b                    48.86441541656235
_cell_length_c                    48.86441541656235
_cell_angle_alpha                 90.0
_cell_angle_beta                  90.0
_cell_angle_gamma                 90.0
loop_
_atom_site_label
_atom_site_type_symbol
_atom_site_fract_x
_atom_site_fract_y
_atom_site_fract_z
_atom_site_charge
Zn1       Zn   -0.0229451225   -0.0229451225    0.0229451225          1.4972
Zn2       Zn    0.0229451225    0.0229451225    0.0229451225          1.4936
Zn3       Zn    0.0229451225   -0.0229451225   -0.0229451225          1.4911
Zn4       Zn   -0.0229451225    0.0229451225   -0.0229451225          1.4948
O5         O    0.0000000000    0.0000000000    0.0000000000         -2.2284
O6         O   -0.0168629870   -0.0168629870    0.0613247897         -1.1348
O7         O    0.0613247897    0.0168629870    0.0168629870         -1.1329
O8         O    0.0168629870   -0.0613247897   -0.0168629870         -1.1281
O9         O    0.0168629870    0.0168629870    0.0613247897         -1.1349
O10        O   -0.0168629870   -0.0613247897    0.0168629870         -1.1309
O11        O    0.0613247897   -0.0168629870   -0.0168629870         -1.1367
O12        O   -0.0168629870    0.0168629870   -0.0613247897         -1.1306
O13        O    0.0168629870    0.0613247897    0.0168629870         -1.1382
O14        O    0.0168629870   -0.0168629870   -0.0613247897         -1.1321
O15        O   -0.0168629870    0.0613247897   -0.0168629870         -1.1368
O16        O   -0.0613247897    0.0168629870   -0.0168629870         -1.1359
O17        O   -0.0613247897   -0.0168629870    0.0168629870         -1.1337
C18        C   -0.0000000000   -0.0000000000    0.0733212496          0.3841
C19        C    0.0733212496   -0.0000000000   -0.0000000000           0.389
C20        C   -0.0000000000   -0.0733212496    0.0000000000          0.3786
C21        C    0.0000000000    0.0000000000   -0.0733212496          0.3824
C22        C    0.0000000000    0.0733212496   -0.0000000000          0.3938
C23        C   -0.0733212496    0.0000000000    0.0000000000          0.3843
Zn24      Zn    0.9770548775   -0.0229451225    0.4770548775          1.4972
Zn25      Zn    1.0229451225   -0.0229451225    0.5229451225          1.4936
Zn26      Zn    1.0229451225    0.0229451225    0.4770548775          1.4911
Zn27      Zn    0.9770548775    0.0229451225    0.5229451225          1.4948
O28        O    1.0000000000    0.0000000000    0.5000000000         -2.2284
O29        O    0.9831370130   -0.0613247897    0.4831370130         -1.1348
O30        O    1.0613247897   -0.0168629870    0.5168629870         -1.1329
O31        O    1.0168629870    0.0168629870    0.4386752103         -1.1281
O32        O    1.0168629870   -0.0613247897    0.5168629870         -1.1349
O33        O    0.9831370130   -0.0168629870    0.4386752103         -1.1309
O34        O    1.0613247897    0.0168629870    0.4831370130         -1.1367
O35        O    0.9831370130    0.0613247897    0.5168629870         -1.1306
O36        O    1.0168629870   -0.0168629870    0.5613247897         -1.1382
O37        O    1.0168629870    0.0613247897    0.4831370130         -1.1321
O38        O    0.9831370130    0.0168629870    0.5613247897         -1.1368
O39        O    0.9386752103    0.0168629870    0.5168629870         -1.1359
O40        O    0.9386752103   -0.0168629870    0.4831370130         -1.1337
C41        C    1.0000000000   -0.0733212496    0.5000000000          0.3841
C42        C    1.0733212496    0.0000000000    0.5000000000           0.389
C43        C    1.0000000000    0.0000000000    0.4266787504          0.3786
C44        C    1.0000000000    0.0733212496    0.5000000000          0.3824
C45        C    1.0000000000    0.0000000000    0.5733212496          0.3938
C46        C    0.9266787504    0.0000000000    0.5000000000          0.3843
Zn47      Zn    1.0229451225    0.5229451225    0.0229451225          1.4972
Zn48      Zn    0.9770548775    0.4770548775    0.0229451225          1.4936
Zn49      Zn    0.9770548775    0.5229451225   -0.0229451225          1.4911
Zn50      Zn    1.0229451225    0.4770548775   -0.0229451225          1.4948
O51        O    1.0000000000    0.5000000000    0.0000000000         -2.2284
O52        O    1.0168629870    0.5168629870    0.0613247897         -1.1348
O53        O    0.9386752103    0.4831370130    0.0168629870         -1.1329
O54        O    0.9831370130    0.5613247897   -0.0168629870         -1.1281
O55        O    0.9831370130    0.4831370130    0.0613247897         -1.1349
O56        O    1.0168629870    0.5613247897    0.0168629870         -1.1309
O57        O    0.9386752103    0.5168629870   -0.0168629870         -1.1367
O58        O    1.0168629870    0.4831370130   -0.0613247897         -1.1306
O59        O    0.9831370130    0.4386752103    0.0168629870         -1.1382
O60        O    0.9831370130    0.5168629870   -0.0613247897         -1.1321
O61        O    1.0168629870    0.4386752103   -0.0168629870         -1.1368
O62        O    1.0613247897    0.4831370130   -0.0168629870         -1.1359
O63        O    1.0613247897    0.5168629870    0.0168629870         -1.1337
C64        C    1.0000000000    0.5000000000    0.0733212496          0.3841
C65        C    0.9266787504    0.5000000000    0.0000000000           0.389
C66        C    1.0000000000    0.5733212496    0.0000000000          0.3786
C67        C    1.0000000000    0.5000000000   -0.0733212496          0.3824
C68        C    1.0000000000    0.4266787504    0.0000000000          0.3938
C69        C    1.0733212496    0.5000000000    0.0000000000          0.3843
Zn70      Zn    0.9770548775    0.4770548775    0.5229451225          1.4972
Zn71      Zn    1.0229451225    0.4770548775    0.4770548775          1.4936
Zn72      Zn    0.9770548775    0.5229451225    0.4770548775          1.4911
Zn73      Zn    1.0229451225    0.5229451225    0.5229451225          1.4948
O74        O    1.0000000000    0.5000000000    0.5000000000         -2.2284
O75        O    0.9831370130    0.4386752103    0.5168629870         -1.1348
O76        O    1.0168629870    0.4831370130    0.4386752103         -1.1329
O77        O    0.9386752103    0.5168629870    0.4831370130         -1.1281
O78        O    1.0168629870    0.4386752103    0.4831370130         -1.1349
O79        O    0.9386752103    0.4831370130    0.5168629870         -1.1309
O80        O    0.9831370130    0.5168629870    0.4386752103         -1.1367
O81        O    1.0168629870    0.5613247897    0.5168629870         -1.1306
O82        O    1.0613247897    0.4831370130    0.4831370130         -1.1382
O83        O    0.9831370130    0.5613247897    0.4831370130         -1.1321
O84        O    1.0613247897    0.5168629870    0.5168629870         -1.1368
O85        O    1.0168629870    0.5168629870    0.5613247897         -1.1359
O86        O    0.9831370130    0.4831370130    0.5613247897         -1.1337
C87        C    1.0000000000    0.4266787504    0.5000000000          0.3841
C88        C    1.0000000000    0.5000000000    0.4266787504           0.389
C89        C    0.9266787504    0.5000000000    0.5000000000          0.3786
C90        C    1.0000000000    0.5733212496    0.5000000000          0.3824
C91        C    1.0733212496    0.5000000000    0.5000000000          0.3938
C92        C    1.0000000000    0.5000000000    0.5733212496          0.3843
Zn93      Zn    0.4770548775    0.9770548775   -0.0229451225          1.4972
Zn94      Zn    0.4770548775    1.0229451225    0.0229451225          1.4936
Zn95      Zn    0.5229451225    0.9770548775    0.0229451225          1.4911
Zn96      Zn    0.5229451225    1.0229451225   -0.0229451225          1.4948
O97        O    0.5000000000    1.0000000000    0.0000000000         -2.2284
O98        O    0.4386752103    0.9831370130   -0.0168629870         -1.1348
O99        O    0.4831370130    1.0168629870    0.0613247897         -1.1329
O100       O    0.5168629870    0.9386752103    0.0168629870         -1.1281
O101       O    0.4386752103    1.0168629870    0.0168629870         -1.1349
O102       O    0.4831370130    0.9386752103   -0.0168629870         -1.1309
O103       O    0.5168629870    0.9831370130    0.0613247897         -1.1367
O104       O    0.5613247897    1.0168629870   -0.0168629870         -1.1306
O105       O    0.4831370130    1.0613247897    0.0168629870         -1.1382
O106       O    0.5613247897    0.9831370130    0.0168629870         -1.1321
O107       O    0.5168629870    1.0613247897   -0.0168629870         -1.1368
O108       O    0.5168629870    1.0168629870   -0.0613247897         -1.1359
O109       O    0.4831370130    0.9831370130   -0.0613247897         -1.1337
C110       C    0.4266787504    1.0000000000    0.0000000000          0.3841
C111       C    0.5000000000    1.0000000000    0.0733212496           0.389
C112       C    0.5000000000    0.9266787504    0.0000000000          0.3786
C113       C    0.5733212496    1.0000000000    0.0000000000          0.3824
C114       C    0.5000000000    1.0733212496    0.0000000000          0.3938
C115       C    0.5000000000    1.0000000000   -0.0733212496          0.3843
Zn116     Zn    0.4770548775    1.0229451225    0.5229451225          1.4972
Zn117     Zn    0.4770548775    0.9770548775    0.4770548775          1.4936
Zn118     Zn    0.5229451225    1.0229451225    0.4770548775          1.4911
Zn119     Zn    0.5229451225    0.9770548775    0.5229451225          1.4948
O120       O    0.5000000000    1.0000000000    0.5000000000         -2.2284
O121       O    0.4386752103    1.0168629870    0.5168629870         -1.1348
O122       O    0.4831370130    0.9831370130    0.4386752103         -1.1329
O123       O    0.5168629870    1.0613247897    0.4831370130         -1.1281
O124       O    0.4386752103    0.9831370130    0.4831370130         -1.1349
O125       O    0.4831370130    1.0613247897    0.5168629870         -1.1309
O126       O    0.5168629870    1.0168629870    0.4386752103         -1.1367
O127       O    0.5613247897    0.9831370130    0.5168629870         -1.1306
O128       O    0.4831370130    0.9386752103    0.4831370130         -1.1382
O129       O    0.5613247897    1.0168629870    0.4831370130         -1.1321
O130       O    0.5168629870    0.9386752103    0.5168629870         -1.1368
O131       O    0.5168629870    0.9831370130    0.5613247897         -1.1359
O132       O    0.4831370130    1.0168629870    0.5613247897         -1.1337
C133       C    0.4266787504    1.0000000000    0.5000000000          0.3841
C134       C    0.5000000000    1.0000000000    0.4266787504           0.389
C135       C    0.5000000000    1.0733212496    0.5000000000          0.3786
C136       C    0.5733212496    1.0000000000    0.5000000000          0.3824
C137       C    0.5000000000    0.9266787504    0.5000000000          0.3938
C138       C    0.5000000000    1.0000000000    0.5733212496          0.3843
Zn139     Zn    0.5229451225    0.5229451225   -0.0229451225          1.4972
Zn140     Zn    0.4770548775    0.4770548775   -0.0229451225          1.4936
Zn141     Zn    0.5229451225    0.4770548775    0.0229451225          1.4911
Zn142     Zn    0.4770548775    0.5229451225    0.0229451225          1.4948
O143       O    0.5000000000    0.5000000000    0.0000000000         -2.2284
O144       O    0.5168629870    0.5168629870   -0.0613247897         -1.1364
O145       O    0.4831370130    0.4386752103   -0.0168629870         -1.1329
O146       O    0.5613247897    0.4831370130    0.0168629870         -1.1281
O147       O    0.4831370130    0.4831370130   -0.0613247897         -1.1349
O148       O    0.5613247897    0.5168629870   -0.0168629870         -1.1309
O149       O    0.5168629870    0.4386752103    0.0168629870         -1.1367
O150       O    0.4831370130    0.5168629870    0.0613247897         -1.1306
O151       O    0.4386752103    0.4831370130   -0.0168629870         -1.1382
O152       O    0.5168629870    0.4831370130    0.0613247897         -1.1321
O153       O    0.4386752103    0.5168629870    0.0168629870         -1.1368
O154       O    0.4831370130    0.5613247897    0.0168629870         -1.1359
O155       O    0.5168629870    0.5613247897   -0.0168629870         -1.1337
C156       C    0.5000000000    0.5000000000   -0.0733212496          0.3841
C157       C    0.5000000000    0.4266787504    0.0000000000           0.389
C158       C    0.5733212496    0.5000000000    0.0000000000          0.3786
C159       C    0.5000000000    0.5000000000    0.0733212496          0.3824
C160       C    0.4266787504    0.5000000000    0.0000000000          0.3938
C161       C    0.5000000000    0.5733212496    0.0000000000          0.3843
Zn162     Zn    0.4770548775    0.5229451225    0.4770548775          1.4972
Zn163     Zn    0.4770548775    0.4770548775    0.5229451225          1.4936
Zn164     Zn    0.5229451225    0.4770548775    0.4770548775          1.4911
Zn165     Zn    0.5229451225    0.5229451225    0.5229451225          1.4948
O166       O    0.5000000000    0.5000000000    0.5000000000         -2.2284
O167       O    0.4386752103    0.5168629870    0.4831370130         -1.1348
O168       O    0.4831370130    0.4386752103    0.5168629870         -1.1329
O169       O    0.5168629870    0.4831370130    0.4386752103         -1.1281
O170       O    0.4386752103    0.4831370130    0.5168629870         -1.1349
O171       O    0.4831370130    0.5168629870    0.4386752103         -1.1309
O172       O    0.5168629870    0.4386752103    0.4831370130         -1.1367
O173       O    0.5613247897    0.5168629870    0.5168629870         -1.1306
O174       O    0.4831370130    0.4831370130    0.5613247897         -1.1382
O175       O    0.5613247897    0.4831370130    0.4831370130         -1.1321
O176       O    0.5168629870    0.5168629870    0.5613247897         -1.1368
O177       O    0.5168629870    0.5613247897    0.5168629870         -1.1359
O178       O    0.4831370130    0.5613247897    0.4831370130         -1.1337
C179       C    0.4266787504    0.5000000000    0.5000000000          0.3841
C180       C    0.5000000000    0.4266787504    0.5000000000           0.389
C181       C    0.5000000000    0.5000000000    0.4266787504          0.3786
C182       C    0.5733212496    0.5000000000    0.5000000000          0.3824
C183       C    0.5000000000    0.5000000000    0.5733212496          0.3938
C184       C    0.5000000000    0.5733212496    0.5000000000          0.3843
C921       C    0.5000000000    0.5000000000   -0.1048370262          0.6078
C922       C    0.5254358215    0.4989709749   -0.1147313706          0.6088
C923       C    0.5298887876    0.4975692490   -0.1416392206          0.6097
C924       C    0.5091989111    0.4971319756   -0.1600097869          0.6095
C925       C    0.4838217276    0.4986485390   -0.1493423319          0.6081
C926       C    0.4793205275    0.5000446266   -0.1227033255          0.6073
C927       C    0.5132556347    0.4951014971   -0.1874382392         -0.3891
H928       H    0.5512101331    0.4966520419   -0.1474758644         -0.3894
H929       H    0.5429333637    0.4990180073   -0.1009573552          0.6092
H930       H    0.4580307812    0.5010955621   -0.1163139457          0.6063
H931       H    0.4652483611    0.4987459741   -0.1612856209          0.6077
C932       C    0.5383789988    0.4933666109   -0.1987282144         -0.3875
C933       C    0.5420861232    0.4911774382   -0.2256788714          -0.386
C934       C    0.5207541395    0.4906301066   -0.2430549772          -0.386
C935       C    0.4959729709    0.4922818121   -0.2320325168         -0.3875
C936       C    0.4922350360    0.4944667238   -0.2052883535          -0.389
N937       N    0.5211335307    0.4889655425   -0.2695438507          -0.385
H938       H    0.5630174386    0.4898995049   -0.2330865115         -0.3848
H939       H    0.5570307516    0.4935761056   -0.1867867104         -0.3873
H940       H    0.4709366720    0.4956074853   -0.1995572190          0.6098
H941       H    0.4779547429    0.4919341930   -0.2451500194         -0.3876
N942       N    0.5449575807    0.4882739246   -0.2800775859         -0.3843
C943       C    0.5448712890    0.4937011493   -0.3101022738         -0.3896
C944       C    0.5160489265    0.4932070118   -0.3235041702         -0.3897
N945       N    0.5190384795    0.4924088783   -0.3533022836         -0.3894
N946       N    0.5399361492    0.4850083320   -0.3489177002         -0.3827
N947       N    0.5544116317    0.4986305507   -0.3299278478          0.6058
N948       N    0.4980418417    0.4997980552   -0.3690252076          0.6036
H949       H    0.5043348739    0.4752730900   -0.3167220549         -0.3739
H950       H    0.5047139732    0.5116359231   -0.3175576390          0.5941
H951       H    0.5554530208    0.5132763346   -0.3138548479          0.5932
N952       N    0.5000000000    0.5000000000   -0.3951629738           0.603
C889       C    0.5000000000    0.5000000000    0.1048370262          0.6078
C890       C    0.4745784881    0.4986633468    0.1147313706          0.6088
C891       C    0.4701428049    0.4972078548    0.1416392206          0.6097
C892       C    0.4908364573    0.4970209039    0.1600097869          0.6095
C893       C    0.5161934376    0.4988443505    0.1493423319          0.6081
C894       C    0.5206774194    0.5002947880    0.1227033255          0.6073
C895       C    0.4868045937    0.4949414988    0.1874382392         -0.3891
H896       H    0.4488341153    0.4960327852    0.1474758644         -0.3894
H897       H    0.4570816573    0.4984987036    0.1009573552          0.6092
H898       H    0.5419528945    0.5016031940    0.1163139457          0.6063
H899       H    0.5347642662    0.4991664651    0.1612856209          0.6077
C900       C    0.4617040553    0.4929028160    0.1987282144         -0.3875
C901       C    0.4580236851    0.4906689575    0.2256788714          -0.386
C902       C    0.4793607291    0.4903797242    0.2430549772          -0.386
C903       C    0.5041201032    0.4923310929    0.2320325168         -0.3875
C904       C    0.5078313333    0.4945610634    0.2052883535          -0.389
N905       N    0.4790015023    0.4887106923    0.2695438507          -0.385
H906       H    0.4371093608    0.4891379064    0.2330865115         -0.3848
H907       H    0.4430511331    0.4928866605    0.1867867104         -0.3873
H908       H    0.5291143387    0.4959593930    0.1995572190          0.6098
H909       H    0.5221412180    0.4922014702    0.2451500194         -0.3876
N910       N    0.4551875623    0.4877309197    0.2800775859         -0.3843
C911       C    0.4552081932    0.4931587912    0.3101022738         -0.3896
C912       C    0.4840344244    0.4930133611    0.3235041702         -0.3897
N913       N    0.4810547453    0.4921791205    0.3533022836         -0.3894
N914       N    0.4602481310    0.4845263115    0.3489177002         -0.3827
N915       N    0.4456089164    0.4979724199    0.3299278478          0.6058
N916       N    0.5019604580    0.4998217583    0.3690252076          0.6036
H917       H    0.4959645709    0.4752224594    0.3167220549         -0.3739
H918       H    0.4951456091    0.5115780456    0.3175576390          0.5941
H919       H    0.4443904298    0.5126045342    0.3138548479          0.5932
N920       N    0.5000000000    0.5000000000    0.3951629738           0.603
C857       C    0.5000000000    0.8951629738    0.5000000000          0.6078
C858       C    0.4769104932    0.8852686294    0.4892801781          0.6088
C859       C    0.4733374886    0.8583607794    0.4862756181          0.6097
C860       C    0.4926082870    0.8399902131    0.4938187292          0.6095
C861       C    0.5154563935    0.8506576681    0.5049661700          0.6081
C862       C    0.5190760979    0.8772966745    0.5079840505          0.6073
C863       C    0.4896426305    0.8125617608    0.4903858396         -0.3891
H864       H    0.4540039053    0.8525241356    0.4772393798         -0.3894
H865       H    0.4607370477    0.8990426448    0.4826029139          0.6092
H866       H    0.5383291416    0.8836860543    0.5171316224          0.6063
H867       H    0.5325676524    0.8387143791    0.5121900371          0.6077
C868       C    0.4671127303    0.8012717856    0.4791343131         -0.3875
C869       C    0.4645308101    0.7743211286    0.4756891807          -0.386
C870       C    0.4844367351    0.7569450228    0.4833773048          -0.386
C871       C    0.5066826372    0.7679674832    0.4944205962         -0.3875
C872       C    0.5092946413    0.7947116465    0.4978736285          -0.389
N873       N    0.4847257933    0.7304561493    0.4816947007          -0.385
H874       H    0.4456958920    0.7669134885    0.4664696940         -0.3848
H875       H    0.4498112081    0.8132132896    0.4721637248         -0.3873
H876       H    0.5285211401    0.8004427810    0.5071074462          0.6098
H877       H    0.5234522823    0.7548499806    0.5010203224         -0.3876
N878       N    0.4629948300    0.7199224141    0.4719054757         -0.3843
C879       C    0.4609899419    0.6898977262    0.4769495453         -0.3896
C880       C    0.4877912593    0.6764958298    0.4875637876         -0.3897
N881       N    0.4853375798    0.6466977164    0.4856786081         -0.3894
N882       N    0.4688853813    0.6510822998    0.4708190709         -0.3827
N883       N    0.4502880480    0.6700721522    0.4778364515          0.6058
N884       N    0.5018855220    0.6309747924    0.5005656610          0.6036
H885       H    0.5054950765    0.6832779451    0.4755047894         -0.3739
H886       H    0.4911783352    0.6824423610    0.5089327757          0.5941
H887       H    0.4437011917    0.6861451521    0.4909588295          0.5932
N888       N    0.5000000000    0.6048370262    0.5000000000           0.603
C825       C    0.5000000000    1.1048370262    0.5000000000          0.6078
C826       C    0.5234829710    1.1147313706    0.5098280201          0.6088
C827       C    0.5281108372    1.1416392206    0.5104416956          0.6097
C828       C    0.5095485203    1.1600097869    0.5012927837          0.6095
C829       C    0.4859124323    1.1493423319    0.4919313333          0.6081
C830       C    0.4812432462    1.1227033255    0.4912921437          0.6073
C831       C    0.5140833362    1.1874382392    0.5011691129         -0.3891
H832       H    0.5478183370    1.1474758644    0.5186304375         -0.3894
H833       H    0.5393177707    1.1009573552    0.5172728382          0.6092
H834       H    0.4615078059    1.1163139457    0.4832379423          0.6063
H835       H    0.4690417018    1.1612856209    0.4841622994          0.6077
C836       C    0.5375817956    1.1987282144    0.5102253626         -0.3875
C837       C    0.5418669705    1.2256788714    0.5098100022          -0.386
C838       C    0.5227693932    1.2430549772    0.5002897269          -0.386
C839       C    0.4996161895    1.2320325168    0.4913028696         -0.3875
C840       C    0.4953048994    1.2052883535    0.4917013349          -0.389
N841       N    0.5238173445    1.2695438507    0.4989419474          -0.385
H842       H    0.5613736627    1.2330865115    0.5175068872         -0.3848
H843       H    0.5543937084    1.1867867104    0.5183056693         -0.3873
H844       H    0.4755236503    1.1995572190    0.4837248800          0.6098
H845       H    0.4834367522    1.2451500194    0.4833654148         -0.3876
N846       N    0.5456971358    1.2800775859    0.5083938480         -0.3843
C847       C    0.5433230001    1.3101022738    0.5132750050         -0.3896
C848       C    0.5174158130    1.3235041702    0.5006341818         -0.3897
N849       N    0.5204623209    1.3533022836    0.5011756927         -0.3894
N850       N    0.5425286510    1.3489177002    0.5033105839         -0.3827
N851       N    0.5498822536    1.3299278478    0.5217775534          0.6058
N852       N    0.4983111245    1.3690252076    0.4989886319          0.6036
H853       H    0.5143884025    1.3167220549    0.4794285372         -0.3739
H854       H    0.4993488895    1.3175576390    0.5125376356          0.5941
H855       H    0.5446300796    1.3138548479    0.5354887951          0.5932
N856       N    0.5000000000    1.3951629738    0.5000000000           0.603
C793       C    0.5000000000    0.8951629738    0.0000000000          0.6078
C794       C    0.5164271773    0.8852686294    0.0194470500          0.6088
C795       C    0.5184024584    0.8583607794    0.0236769445          0.6097
C796       C    0.5041009101    0.8399902131    0.0087194074          0.6095
C797       C    0.4880727746    0.8506576681   -0.0110138204          0.6081
C798       C    0.4860607473    0.8772966745   -0.0152754643          0.6073
C799       C    0.5053449400    0.8125617608    0.0130820029         -0.3891
H800       H    0.5321321112    0.8525241356    0.0400151719         -0.3894
H801       H    0.5282841213    0.8990426448    0.0323148033          0.6092
H802       H    0.4724510319    0.8836860543   -0.0316807503          0.6063
H803       H    0.4755954507    0.8387143791   -0.0247723023          0.6077
C804       C    0.5210406299    0.8012717856    0.0327756204         -0.3875
C805       C    0.5219314594    0.7743211286    0.0369877068          -0.386
C806       C    0.5071149323    0.7569450228    0.0216311569          -0.386
C807       C    0.4915891256    0.7679674832    0.0022460138         -0.3875
C808       C    0.4906743374    0.7947116465   -0.0019859077          -0.389
N809       N    0.5061441199    0.7304561493    0.0230355196          -0.385
H810       H    0.5351316527    0.7669134885    0.0532821223         -0.3848
H811       H    0.5337971903    0.8132132896    0.0463845121         -0.3873
H812       H    0.4771250208    0.8004427810   -0.0184582380          0.6098
H813       H    0.4791587801    0.7548499806   -0.0108025069         -0.3876
N814       N    0.5217310418    0.7199224141    0.0410663697         -0.3843
C815       C    0.5256737949    0.6898977262    0.0373358319         -0.3896
C816       C    0.5058355849    0.6764958298    0.0164212873         -0.3897
N817       N    0.5072670864    0.6466977164    0.0191645059         -0.3894
N818       N    0.5159308366    0.6510822998    0.0395708803         -0.3827
N819       N    0.5357538095    0.6700721522    0.0410385936          0.6058
N820       N    0.4985280863    0.6309747924   -0.0013071480          0.6036
H821       H    0.4846997091    0.6832779451    0.0199025704         -0.3739
H822       H    0.5117632417    0.6824423610   -0.0043866155          0.5941
H823       H    0.5472545862    0.6861451521    0.0319108549          0.5932
N824       N    0.5000000000    0.6048370262    0.0000000000           0.603
C761       C    0.5000000000    1.1048370262    0.0000000000          0.6078
C762       C    0.5196771607    1.1147313706   -0.0161508282          0.6088
C763       C    0.5223857553    1.1416392206   -0.0199530984          0.6097
C764       C    0.5056120643    1.1600097869   -0.0078326409          0.6095
C765       C    0.4862755257    1.1493423319    0.0086718943          0.6081
C766       C    0.4835250432    1.1227033255    0.0124987348          0.6073
C767       C    0.5076255272    1.1874382392   -0.0118978367         -0.3891
H768       H    0.5388470277    1.1474758644   -0.0335349816         -0.3894
H769       H    0.5336682347    1.1009573552   -0.0266587322          0.6092
H770       H    0.4671695819    1.1163139457    0.0261682868          0.6063
H771       H    0.4715130309    1.1612856209    0.0199434595          0.6077
C772       C    0.5266279435    1.1987282144   -0.0284236174         -0.3875
C773       C    0.5282667904    1.2256788714   -0.0324047516          -0.386
C774       C    0.5109143793    1.2430549772   -0.0199851328          -0.386
C775       C    0.4921348976    1.2320325168   -0.0037319635         -0.3875
C776       C    0.4904688963    1.2052883535    0.0002643394          -0.389
N777       N    0.5102139257    1.2695438507   -0.0215420773          -0.385
H778       H    0.5441994229    1.2330865115   -0.0460394243         -0.3848
H779       H    0.5416379699    1.1867867104   -0.0394975000         -0.3873
H780       H    0.4741606947    1.1995572190    0.0140107646          0.6098
H781       H    0.4775471677    1.2451500194    0.0068498850         -0.3876
N782       N    0.5288082703    1.2800775859   -0.0364522765         -0.3843
C783       C    0.5320102959    1.3101022738   -0.0320694411         -0.3896
C784       C    0.5087127544    1.3235041702   -0.0150930660         -0.3897
N785       N    0.5106173448    1.3533022836   -0.0175317090         -0.3894
N786       N    0.5228331466    1.3489177002   -0.0360318406         -0.3827
N787       N    0.5425941763    1.3299278478   -0.0338856488          0.6058
N788       N    0.4983157161    1.3690252076    0.0010189963          0.6036
H789       H    0.4885567155    1.3167220549   -0.0223441815         -0.3739
H790       H    0.5107744160    1.3175576390    0.0064442386          0.5941
H791       H    0.5522519210    1.3138548479   -0.0228261983          0.5932
N792       N    0.5000000000    1.3951629738    0.0000000000           0.603
C729       C    0.5000000000    1.0000000000   -0.1048370262          0.6078
C730       C    0.4988393379    0.9745698453   -0.1147313706          0.6088
C731       C    0.4974145831    0.9701241938   -0.1416392206          0.6097
C732       C    0.4970844022    0.9908160565   -0.1600097869          0.6095
C733       C    0.4987322927    1.0161850506   -0.1493423319          0.6081
C734       C    0.5001516588    1.0206789645   -0.1227033255          0.6073
C735       C    0.4950329541    0.9867698965   -0.1874382392         -0.3891
H736       H    0.4963870332    0.9488078812   -0.1474758644         -0.3894
H737       H    0.4987958058    0.9570722940   -0.1009573552          0.6092
H738       H    0.5013127718    1.0419629862   -0.1163139457          0.6063
H739       H    0.4989258586    1.0347576640   -0.1612856209          0.6077
C740       C    0.4931680576    0.9616558484   -0.1987282144         -0.3875
C741       C    0.4909597269    0.9579601043   -0.2256788714          -0.386
C742       C    0.4905228127    0.9792946352   -0.2430549772          -0.386
C743       C    0.4923027586    1.0040669229   -0.2320325168         -0.3875
C744       C    0.4945069878    1.0077934992   -0.2052883535          -0.389
N745       N    0.4888563073    0.9789238645   -0.2695438507          -0.385
H746       H    0.4895734744    0.9370356836   -0.2330865115         -0.3848
H747       H    0.4932810117    0.9430032612   -0.1867867104         -0.3873
H748       H    0.4957579702    1.0290856735   -0.1995572190          0.6098
H749       H    0.4920484030    1.0220867088   -0.2451500194         -0.3876
N750       N    0.4880413902    0.9551037134   -0.2800775859         -0.3843
C751       C    0.4934689888    0.9551619137   -0.3101022738         -0.3896
C752       C    0.4931240367    0.9839864477   -0.3235041702         -0.3897
N753       N    0.4923104405    0.9810010657   -0.3533022836         -0.3894
N754       N    0.4848018312    0.9601419796   -0.3489177002         -0.3827
N755       N    0.4983489451    0.9455961851   -0.3299278478          0.6058
N756       N    0.4998081929    1.0019591773   -0.3690252076          0.6036
H757       H    0.4752509848    0.9957931658   -0.3167220549         -0.3739
H758       H    0.5116113687    0.9952258647   -0.3175576390          0.5941
H759       H    0.5129891429    0.9444790063   -0.3138548479          0.5932
N760       N    0.5000000000    1.0000000000   -0.3951629738           0.603
C697       C    0.5000000000    1.0000000000    0.1048370262          0.6078
C698       C    0.4745784881    0.9986633468    0.1147313706          0.6088
C699       C    0.4701428049    0.9972078548    0.1416392206          0.6097
C700       C    0.4908364573    0.9970209039    0.1600097869          0.6095
C701       C    0.5161934376    0.9988443505    0.1493423319          0.6081
C702       C    0.5206774194    1.0002947880    0.1227033255          0.6073
C703       C    0.4868045937    0.9949414988    0.1874382392         -0.3891
H704       H    0.4488341153    0.9960327852    0.1474758644         -0.3894
H705       H    0.4570816573    0.9984987036    0.1009573552          0.6092
H706       H    0.5419528945    1.0016031940    0.1163139457          0.6063
H707       H    0.5347642662    0.9991664651    0.1612856209          0.6077
C708       C    0.4617040553    0.9929028160    0.1987282144         -0.3875
C709       C    0.4580236851    0.9906689575    0.2256788714          -0.386
C710       C    0.4793607291    0.9903797242    0.2430549772          -0.386
C711       C    0.5041201032    0.9923310929    0.2320325168         -0.3875
C712       C    0.5078313333    0.9945610634    0.2052883535          -0.389
N713       N    0.4790015023    0.9887106923    0.2695438507          -0.385
H714       H    0.4371093608    0.9891379064    0.2330865115         -0.3848
H715       H    0.4430511331    0.9928866605    0.1867867104         -0.3873
H716       H    0.5291143387    0.9959593930    0.1995572190          0.6098
H717       H    0.5221412180    0.9922014702    0.2451500194         -0.3876
N718       N    0.4551875623    0.9877309197    0.2800775859         -0.3843
C719       C    0.4552081932    0.9931587912    0.3101022738         -0.3896
C720       C    0.4840344244    0.9930133611    0.3235041702         -0.3897
N721       N    0.4810547453    0.9921791205    0.3533022836         -0.3894
N722       N    0.4602481310    0.9845263115    0.3489177002         -0.3827
N723       N    0.4456089164    0.9979724199    0.3299278478          0.6058
N724       N    0.5019604580    0.9998217583    0.3690252076          0.6036
H725       H    0.4959645709    0.9752224594    0.3167220549         -0.3739
H726       H    0.4951456091    1.0115780456    0.3175576390          0.5941
H727       H    0.4443904298    1.0126045342    0.3138548479          0.5932
N728       N    0.5000000000    1.0000000000    0.3951629738           0.603
C665       C    0.6048370262    0.5000000000    0.5000000000          0.6078
C666       C    0.6147313706    0.4808121435    0.5167291981          0.6088
C667       C    0.6416392206    0.4766136468    0.5187703665          0.6097
C668       C    0.6600097869    0.4913457704    0.5042367251          0.6095
C669       C    0.6493423319    0.5108260083    0.4879020460          0.6081
C670       C    0.6227033255    0.5150556760    0.4858236396          0.6073
C671       C    0.6874382392    0.4870031568    0.5055488062         -0.3891
H672       H    0.6474758644    0.4604920606    0.5327537674         -0.3894
H673       H    0.6009573552    0.4681313301    0.5287858630          0.6092
H674       H    0.6163139457    0.5312461875    0.4719591129          0.6063
H675       H    0.6612856209    0.5243877426    0.4752111518          0.6077
C676       C    0.6987282144    0.4675573271    0.5215504610         -0.3875
C677       C    0.7256788714    0.4633596824    0.5225070320          -0.386
C678       C    0.7430549772    0.4784827191    0.5074522367          -0.386
C679       C    0.7320325168    0.4976227680    0.4916252669         -0.3875
C680       C    0.7052883535    0.5018398708    0.4906444301          -0.389
N681       N    0.7695438507    0.4770633506    0.5065034983          -0.385
H682       H    0.7330865115    0.4472736255    0.5359603532         -0.3848
H683       H    0.6867867104    0.4541495301    0.5345182191         -0.3873
H684       H    0.6995572190    0.5180983628    0.4768392468          0.6098
H685       H    0.7451500194    0.5104753623    0.4789924446         -0.3876
N686       N    0.7800775859    0.4592783846    0.5223704033         -0.3843
C687       C    0.8101022738    0.4630701061    0.5262543526         -0.3896
C688       C    0.8235041702    0.4836719511    0.5060915964         -0.3897
N689       N    0.8533022836    0.4809514474    0.5075658095         -0.3894
N690       N    0.8489177002    0.4606830129    0.5165475270         -0.3827
N691       N    0.8299278478    0.4595253844    0.5363910229          0.6058
N692       N    0.8690252076    0.5012839769    0.4985078307          0.6036
H693       H    0.8167220549    0.4798606626    0.4850127288         -0.3739
H694       H    0.8175576390    0.5045699819    0.5116932252          0.5941
H695       H    0.8138548479    0.4688318067    0.5477476942          0.5932
N696       N    0.8951629738    0.5000000000    0.5000000000           0.603
C633       C    1.1048370262    0.5000000000    0.5000000000          0.6078
C634       C    1.1147313706    0.5185940977    0.4826132396          0.6088
C635       C    1.1416392206    0.5227190237    0.4804272092          0.6097
C636       C    1.1600097869    0.5085015599    0.4954646932          0.6095
C637       C    1.1493423319    0.4896015296    0.5124673477          0.6081
C638       C    1.1227033255    0.4854467473    0.5146916782          0.6073
C639       C    1.1874382392    0.5127958861    0.4940022936         -0.3891
H640       H    1.1474758644    0.5383442555    0.4658912823         -0.3894
H641       H    1.1009573552    0.5308476867    0.4701226129          0.6092
H642       H    1.1163139457    0.4697484952    0.5291112014          0.6063
H643       H    1.1612856209    0.4764896230    0.5256224737          0.6077
C644       C    1.1987282144    0.5316731177    0.4773336590         -0.3875
C645       C    1.2256788714    0.5358349337    0.4762315988          -0.386
C646       C    1.2430549772    0.5212449286    0.4918035240          -0.386
C647       C    1.2320325168    0.5026672140    0.5082869389         -0.3875
C648       C    1.2052883535    0.4984867961    0.5094139272          -0.389
N649       N    1.2695438507    0.5226964514    0.4927022970          -0.385
H650       H    1.2330865115    0.5514431033    0.4622266669         -0.3848
H651       H    1.1867867104    0.5446215459    0.4639071935         -0.3873
H652       H    1.1995572190    0.4827185398    0.5237765085          0.6098
H653       H    1.2451500194    0.4902619971    0.5213593516         -0.3876
N654       N    1.2800775859    0.5399185140    0.4762261248         -0.3843
C655       C    1.3101022738    0.5359939363    0.4724764710         -0.3896
C656       C    1.3235041702    0.5161061865    0.4933439137         -0.3897
N657       N    1.3533022836    0.5187737433    0.4917759261         -0.3894
N658       N    1.3489177002    0.5387173593    0.4820943526         -0.3827
N659       N    1.3299278478    0.5391837780    0.4622225915          0.6058
N660       N    1.3690252076    0.4987687248    0.5015359451          0.6036
H661       H    1.3167220549    0.5206486636    0.5142773912         -0.3739
H662       H    1.3175576390    0.4950258881    0.4884728815          0.5941
H663       H    1.3138548479    0.5294878055    0.4511966404          0.5932
N664       N    1.3951629738    0.5000000000    0.5000000000           0.603
C601       C    0.6048370262    0.5000000000    0.0000000000          0.6078
C602       C    0.6147313706    0.4745744293    0.0012570840          0.6088
C603       C    0.6416392206    0.4700136646    0.0002605057          0.6097
C604       C    0.6600097869    0.4905808801   -0.0020311844          0.6095
C605       C    0.6493423319    0.5159917886   -0.0027974354          0.6081
C606       C    0.6227033255    0.5206000868   -0.0018108000          0.6073
C607       C    0.6874382392    0.4863583519   -0.0036895285         -0.3891
H608       H    0.6474758644    0.4486960100    0.0012598291         -0.3894
H609       H    0.6009573552    0.4571516648    0.0028737084          0.6092
H610       H    0.6163139457    0.5418982670   -0.0026740993          0.6063
H611       H    0.6612856209    0.5344989998   -0.0043666917          0.6077
C612       C    0.6987282144    0.4611806527   -0.0031634911         -0.3875
C613       C    0.7256788714    0.4572920768   -0.0050112536          -0.386
C614       C    0.7430549772    0.4784889365   -0.0074701644          -0.386
C615       C    0.7320325168    0.5033183576   -0.0080483470         -0.3875
C616       C    0.7052883535    0.5072372375   -0.0062075926          -0.389
N617       N    0.7695438507    0.4779617397   -0.0090939793          -0.385
H618       H    0.7330865115    0.4363305172   -0.0044061931         -0.3848
H619       H    0.6867867104    0.4426229072   -0.0012815103         -0.3873
H620       H    0.6995572190    0.5285520593   -0.0069822012          0.6098
H621       H    0.7451500194    0.5212327412   -0.0100110590         -0.3876
N622       N    0.7800775859    0.4541717115   -0.0076454477         -0.3843
C623       C    0.8101022738    0.4547445554   -0.0022478497         -0.3896
C624       C    0.8235041702    0.4834063614   -0.0053257758         -0.3897
N625       N    0.8533022836    0.4803572596   -0.0058524849         -0.3894
N626       N    0.8489177002    0.4588799234   -0.0113483667         -0.3827
N627       N    0.8299278478    0.4456849221    0.0035175801          0.6058
N628       N    0.8690252076    0.5019321448   -0.0003768055          0.6036
H629       H    0.8167220549    0.4934642463   -0.0242382989         -0.3739
H630       H    0.8175576390    0.4963489456    0.0120119129          0.5941
H631       H    0.8138548479    0.4459616702    0.0181977331          0.5932
N632       N    0.8951629738    0.5000000000    0.0000000000           0.603
C569       C    1.1048370262    0.5000000000    0.0000000000          0.6078
C570       C    1.1147313706    0.5073633735   -0.0243684353          0.6088
C571       C    1.1416392206    0.5098351418   -0.0283287515          0.6097
C572       C    1.1600097869    0.5050793919   -0.0081881199          0.6095
C573       C    1.1493423319    0.4972586800    0.0160015034          0.6081
C574       C    1.1227033255    0.4947802967    0.0200099293          0.6073
C575       C    1.1874382392    0.5080607075   -0.0116074191         -0.3891
H576       H    1.1474758644    0.5160603192   -0.0487416937         -0.3894
H577       H    1.1009573552    0.5116978334   -0.0413206816          0.6092
H578       H    1.1163139457    0.4884335583    0.0403588034          0.6063
H579       H    1.1612856209    0.4925150512    0.0339591597          0.6077
C580       C    1.1987282144    0.5160292550   -0.0354966531         -0.3875
C581       C    1.2256788714    0.5190767006   -0.0385377589          -0.386
C582       C    1.2430549772    0.5142667724   -0.0177479130          -0.386
C583       C    1.2320325168    0.5064644157    0.0058308418         -0.3875
C584       C    1.2052883535    0.5034133831    0.0089028438          -0.389
N585       N    1.2695438507    0.5159733112   -0.0176985509          -0.385
H586       H    1.2330865115    0.5255534873   -0.0584827911         -0.3848
H587       H    1.1867867104    0.5204953475   -0.0536070310         -0.3873
H588       H    1.1995572190    0.4969775212    0.0292375759          0.6098
H589       H    1.2451500194    0.5022906345    0.0233624398         -0.3876
N590       N    1.2800775859    0.5226065599   -0.0405909886         -0.3843
C591       C    1.3101022738    0.5173305211   -0.0418659902         -0.3896
C592       C    1.3235041702    0.5105940964   -0.0138375522         -0.3897
N593       N    1.3533022836    0.5121151664   -0.0165321376         -0.3894
N594       N    1.3489177002    0.5245112183   -0.0349119793         -0.3827
N595       N    1.3299278478    0.5149462012   -0.0523365276          0.6058
N596       N    1.3690252076    0.4997053482    0.0019463674          0.6036
H597       H    1.3167220549    0.5250247877    0.0019927898         -0.3739
H598       H    1.3175576390    0.4899145342   -0.0074766055          0.5941
H599       H    1.3138548479    0.5010273761   -0.0570109031          0.5932
N600       N    1.3951629738    0.5000000000    0.0000000000           0.603
C537       C    1.0000000000    0.5000000000   -0.3951629738          0.6078
C538       C    1.0254215119    0.5013366532   -0.3852686294          0.6088
C539       C    1.0298571951    0.5027921452   -0.3583607794          0.6097
C540       C    1.0091635427    0.5029790961   -0.3399902131          0.6095
C541       C    0.9838065624    0.5011556495   -0.3506576681          0.6081
C542       C    0.9793225806    0.4997052120   -0.3772966745          0.6073
C543       C    1.0131954063    0.5050585012   -0.3125617608         -0.3891
H544       H    1.0511658847    0.5039672148   -0.3525241356         -0.3894
H545       H    1.0429183427    0.5015012964   -0.3990426448          0.6092
H546       H    0.9580471055    0.4983968060   -0.3836860543          0.6063
H547       H    0.9652357338    0.5008335349   -0.3387143791          0.6077
C548       C    1.0382959447    0.5070971840   -0.3012717856         -0.3875
C549       C    1.0419763149    0.5093310425   -0.2743211286          -0.386
C550       C    1.0206392709    0.5096202758   -0.2569450228          -0.386
C551       C    0.9958798968    0.5076689071   -0.2679674832         -0.3875
C552       C    0.9921686667    0.5054389366   -0.2947116465          -0.389
N553       N    1.0209984977    0.5112893077   -0.2304561493          -0.385
H554       H    1.0628906392    0.5108620936   -0.2669134885         -0.3848
H555       H    1.0569488669    0.5071133395   -0.3132132896         -0.3873
H556       H    0.9708856613    0.5040406070   -0.3004427810          0.6098
H557       H    0.9778587820    0.5077985298   -0.2548499806         -0.3876
N558       N    1.0448124377    0.5122690803   -0.2199224141         -0.3843
C559       C    1.0447918068    0.5068412088   -0.1898977262         -0.3896
C560       C    1.0159655756    0.5069866389   -0.1764958298         -0.3897
N561       N    1.0189452547    0.5078208795   -0.1466977164         -0.3894
N562       N    1.0397518690    0.5154736885   -0.1510822998         -0.3827
N563       N    1.0543910836    0.5020275801   -0.1700721522          0.6058
N564       N    0.9980395420    0.5001782417   -0.1309747924          0.6036
H565       H    1.0040354291    0.5247775406   -0.1832779451         -0.3739
H566       H    1.0048543909    0.4884219544   -0.1824423610          0.5941
H567       H    1.0556095702    0.4873954658   -0.1861451521          0.5932
N568       N    1.0000000000    0.5000000000   -0.1048370262           0.603
C505       C    1.0000000000    0.5000000000    0.3951629738          0.6078
C506       C    1.0254215119    0.4986633468    0.3852686294          0.6088
C507       C    1.0298571951    0.4972078548    0.3583607794          0.6097
C508       C    1.0091635427    0.4970209039    0.3399902131          0.6095
C509       C    0.9838065624    0.4988443505    0.3506576681          0.6081
C510       C    0.9793225806    0.5002947880    0.3772966745          0.6073
C511       C    1.0131954063    0.4949414988    0.3125617608         -0.3891
H512       H    1.0511658847    0.4960327852    0.3525241356         -0.3894
H513       H    1.0429183427    0.4984987036    0.3990426448          0.6092
H514       H    0.9580471055    0.5016031940    0.3836860543          0.6063
H515       H    0.9652357338    0.4991664651    0.3387143791          0.6077
C516       C    1.0382959447    0.4929028160    0.3012717856         -0.3875
C517       C    1.0419763149    0.4906689575    0.2743211286          -0.386
C518       C    1.0206392709    0.4903797242    0.2569450228          -0.386
C519       C    0.9958798968    0.4923310929    0.2679674832         -0.3875
C520       C    0.9921686667    0.4945610634    0.2947116465          -0.389
N521       N    1.0209984977    0.4887106923    0.2304561493          -0.385
H522       H    1.0628906392    0.4891379064    0.2669134885         -0.3848
H523       H    1.0569488669    0.4928866605    0.3132132896         -0.3873
H524       H    0.9708856613    0.4959593930    0.3004427810          0.6098
H525       H    0.9778587820    0.4922014702    0.2548499806         -0.3876
N526       N    1.0448124377    0.4877309197    0.2199224141         -0.3843
C527       C    1.0447918068    0.4931587912    0.1898977262         -0.3896
C528       C    1.0159655756    0.4930133611    0.1764958298         -0.3897
N529       N    1.0189452547    0.4921791205    0.1466977164         -0.3894
N530       N    1.0397518690    0.4845263115    0.1510822998         -0.3827
N531       N    1.0543910836    0.4979724199    0.1700721522          0.6058
N532       N    0.9980395420    0.4998217583    0.1309747924          0.6036
H533       H    1.0040354291    0.4752224594    0.1832779451         -0.3739
H534       H    1.0048543909    0.5115780456    0.1824423610          0.5941
H535       H    1.0556095702    0.5126045342    0.1861451521          0.5932
N536       N    1.0000000000    0.5000000000    0.1048370262           0.603
C473       C    1.0000000000   -0.1048370262    0.5000000000          0.6078
C474       C    1.0254530842   -0.1147313706    0.5004247461          0.6088
C475       C    1.0299380796   -0.1416392206    0.5017203385          0.6097
C476       C    1.0092644202   -0.1600097869    0.5026487821          0.6095
C477       C    0.9838583805   -0.1493423319    0.5017352427          0.6081
C478       C    0.9793252987   -0.1227033255    0.5004464325          0.6073
C479       C    1.0133682150   -0.1874382392    0.5045823588         -0.3891
H480       H    1.0512751928   -0.1474758644    0.5021309989         -0.3894
H481       H    1.0429445760   -0.1009573552    0.4999622374          0.6092
H482       H    0.9580166003   -0.1163139457    0.4999013310          0.6063
H483       H    0.9652879375   -0.1612856209    0.5020788707          0.6077
C484       C    1.0385256910   -0.1987282144    0.5057201864         -0.3875
C485       C    1.0422837534   -0.2256788714    0.5078207140          -0.386
C486       C    1.0209707812   -0.2430549772    0.5088744320          -0.386
C487       C    0.9961573794   -0.2320325168    0.5078116358         -0.3875
C488       C    0.9923686164   -0.2052883535    0.5057160997          -0.389
N489       N    1.0213895916   -0.2695438507    0.5105295179          -0.385
H490       H    1.0632395121   -0.2330865115    0.5086012603         -0.3848
H491       H    1.0571672100   -0.1867867104    0.5050678538         -0.3873
H492       H    0.9710491697   -0.1995572190    0.5050814023          0.6098
H493       H    0.9781524863   -0.2451500194    0.5085870105         -0.3876
N494       N    1.0452233468   -0.2800775859    0.5106552243         -0.3843
C495       C    1.0450082068   -0.3101022738    0.5052315790         -0.3896
C496       C    1.0162057048   -0.3235041702    0.5064099814         -0.3897
N497       N    1.0192133670   -0.3533022836    0.5071369012         -0.3894
N498       N    1.0402808747   -0.3489177002    0.5140391331         -0.3827
N499       N    1.0544288078   -0.3299278478    0.5000770264          0.6058
N500       N    0.9980471891   -0.3690252076    0.5002483855          0.6036
H501       H    1.0049208069   -0.3167220549    0.5246170036         -0.3739
H502       H    1.0044363421   -0.3175576390    0.4882554217          0.5941
H503       H    1.0551221304   -0.3138548479    0.4854106437          0.5932
N504       N    1.0000000000   -0.3951629738    0.5000000000           0.603
C441       C    1.0000000000    0.3951629738    0.5000000000          0.6078
C442       C    0.9745469158    0.3852686294    0.4995752539          0.6088
C443       C    0.9700619204    0.3583607794    0.4982796615          0.6097
C444       C    0.9907355798    0.3399902131    0.4973512179          0.6095
C445       C    1.0161416195    0.3506576681    0.4982647573          0.6081
C446       C    1.0206747013    0.3772966745    0.4995535675          0.6073
C447       C    0.9866317850    0.3125617608    0.4954176412         -0.3891
H448       H    0.9487248072    0.3525241356    0.4978690011         -0.3894
H449       H    0.9570554240    0.3990426448    0.5000377626          0.6092
H450       H    1.0419833997    0.3836860543    0.5000986690          0.6063
H451       H    1.0347120625    0.3387143791    0.4979211293          0.6077
C452       C    0.9614743090    0.3012717856    0.4942798136         -0.3875
C453       C    0.9577162466    0.2743211286    0.4921792860          -0.386
C454       C    0.9790292188    0.2569450228    0.4911255680          -0.386
C455       C    1.0038426206    0.2679674832    0.4921883642         -0.3875
C456       C    1.0076313836    0.2947116465    0.4942839003          -0.389
N457       N    0.9786104084    0.2304561493    0.4894704821          -0.385
H458       H    0.9367604879    0.2669134885    0.4913987397         -0.3848
H459       H    0.9428327900    0.3132132896    0.4949321462         -0.3873
H460       H    1.0289508303    0.3004427810    0.4949185977          0.6098
H461       H    1.0218475137    0.2548499806    0.4914129895         -0.3876
N462       N    0.9547766532    0.2199224141    0.4893447757         -0.3843
C463       C    0.9549917932    0.1898977262    0.4947684210         -0.3896
C464       C    0.9837942952    0.1764958298    0.4935900186         -0.3897
N465       N    0.9807866330    0.1466977164    0.4928630988         -0.3894
N466       N    0.9597191253    0.1510822998    0.4859608669         -0.3827
N467       N    0.9455711922    0.1700721522    0.4999229736          0.6058
N468       N    1.0019528109    0.1309747924    0.4997516145          0.6036
H469       H    0.9950791931    0.1832779451    0.4753829964         -0.3739
H470       H    0.9955636579    0.1824423610    0.5117445783          0.5941
H471       H    0.9448778696    0.1861451521    0.5145893563          0.5932
N472       N    1.0000000000    0.1048370262    0.5000000000           0.603
C409       C    0.8951629738   -0.0000000000    0.5000000000          0.6078
C410       C    0.8852686294    0.0028299472    0.4747011600          0.6088
C411       C    0.8583607794    0.0021178522    0.4700874127          0.6097
C412       C    0.8399902131   -0.0014437069    0.4904731307          0.6095
C413       C    0.8506576681   -0.0037828556    0.5157877468          0.6081
C414       C    0.8772966745   -0.0030836295    0.5204483203          0.6073
C415       C    0.8125617608   -0.0028372522    0.4861559694         -0.3891
H416       H    0.8525241356    0.0044360220    0.4488726271         -0.3894
H417       H    0.8990426448    0.0055229184    0.4574120275          0.6092
H418       H    0.8836860543   -0.0052648299    0.5416520966          0.6063
H419       H    0.8387143791   -0.0064957383    0.5341621775          0.6077
C420       C    0.8012717856   -0.0007523045    0.4610592317         -0.3875
C421       C    0.7743211286   -0.0023555948    0.4570636455          -0.386
C422       C    0.7569450228   -0.0061230639    0.4780674375          -0.386
C423       C    0.7679674832   -0.0082384786    0.5028133355         -0.3875
C424       C    0.7947116465   -0.0066440605    0.5068387333          -0.389
N425       N    0.7304561493   -0.0077110960    0.4774406478          -0.385
H426       H    0.7669134885   -0.0004529929    0.4361798435         -0.3848
H427       H    0.8132132896    0.0022758328    0.4426537392         -0.3873
H428       H    0.8004427810   -0.0087377717    0.5280646142          0.6098
H429       H    0.7548499806   -0.0113073316    0.5205717003         -0.3876
N430       N    0.7199224141   -0.0047914015    0.4537860695         -0.3843
C431       C    0.6898977262    0.0005603356    0.4546922289         -0.3896
C432       C    0.6764958298   -0.0042874612    0.4831082740         -0.3897
N433       N    0.6466977164   -0.0046242469    0.4800323970         -0.3894
N434       N    0.6510822998   -0.0087789107    0.4582558166         -0.3827
N435       N    0.6700721522    0.0068759919    0.4460072061          0.6058
N436       N    0.6309747924   -0.0004957904    0.5019050873          0.6036
H437       H    0.6832779451   -0.0237868014    0.4919750834         -0.3739
H438       H    0.6824423610    0.0122150427    0.4971001754          0.5941
H439       H    0.6861451521    0.0215107958    0.4471929527          0.5932
N440       N    0.6048370262   -0.0000000000    0.5000000000           0.603
C377       C    1.1048370262   -0.0000000000    0.5000000000          0.6078
C378       C    1.1147313706   -0.0176839192    0.4816882850          0.6088
C379       C    1.1416392206   -0.0199360882    0.4775990946          0.6097
C380       C    1.1600097869   -0.0046716159    0.4915725725          0.6095
C381       C    1.1493423319    0.0126331736    0.5101963656          0.6081
C382       C    1.1227033255    0.0149241184    0.5143147918          0.6073
C383       C    1.1874382392   -0.0062029757    0.4873023516         -0.3891
H384       H    1.1474758644   -0.0347217371    0.4622099547         -0.3894
H385       H    1.1009573552   -0.0303702409    0.4696374162          0.6092
H386       H    1.1163139457    0.0295945545    0.5297788168          0.6063
H387       H    1.1612856209    0.0259977295    0.5230947407          0.6077
C388       C    1.1987282144   -0.0231734214    0.4686959757         -0.3875
C389       C    1.2256788714   -0.0243423547    0.4645524453          -0.386
C390       C    1.2430549772   -0.0085375117    0.4788898104          -0.386
C391       C    1.2320325168    0.0082429154    0.4971996906         -0.3875
C392       C    1.2052883535    0.0094370732    0.5013614191          -0.389
N393       N    1.2695438507   -0.0076622285    0.4774240032          -0.385
H394       H    1.2330865115   -0.0385968027    0.4491718150         -0.3848
H395       H    1.1867867104   -0.0368066493    0.4559654271         -0.3873
H396       H    1.1995572190    0.0240517020    0.5168963562          0.6098
H397       H    1.2451500194    0.0215133893    0.5093927994         -0.3876
N398       N    1.2800775859   -0.0244135842    0.4604694826         -0.3843
C399       C    1.3101022738   -0.0280995560    0.4644539306         -0.3896
C400       C    1.3235041702   -0.0069145746    0.4840030820         -0.3897
N401       N    1.3533022836   -0.0085253135    0.4813611196         -0.3894
N402       N    1.3489177002   -0.0185267756    0.4615759879         -0.3827
N403       N    1.3299278478   -0.0384034708    0.4614296164          0.6058
N404       N    1.3690252076    0.0015555726    0.5012063828          0.6036
H405       H    1.3167220549    0.0139430431    0.4791241106         -0.3739
H406       H    1.3175576390   -0.0114455279    0.5051590834          0.5941
H407       H    1.3138548479   -0.0492718620    0.4713018782          0.5932
N408       N    1.3951629738   -0.0000000000    0.5000000000           0.603
C345       C   -0.0000000000   -0.1048370262    0.0000000000          0.6078
C346       C   -0.0204833973   -0.1147313706   -0.0151152355          0.6088
C347       C   -0.0233843549   -0.1416392206   -0.0187728560          0.6097
C348       C   -0.0060082874   -0.1600097869   -0.0075329948          0.6095
C349       C    0.0141531699   -0.1493423319    0.0079530326          0.6081
C350       C    0.0170972261   -0.1227033255    0.0116330320          0.6073
C351       C   -0.0082285879   -0.1874382392   -0.0114890175         -0.3891
H352       H   -0.0405237385   -0.1474758644   -0.0314883022         -0.3894
H353       H   -0.0349974375   -0.1009573552   -0.0248880976          0.6092
H354       H    0.0341354575   -0.1163139457    0.0244414837          0.6063
H355       H    0.0294769635   -0.1612856209    0.0184487833          0.6077
C356       C   -0.0280574619   -0.1987282144   -0.0270134824         -0.3875
C357       C   -0.0298993120   -0.2256788714   -0.0309048622          -0.386
C358       C   -0.0119298752   -0.2430549772   -0.0193960637          -0.386
C359       C    0.0076623105   -0.2320325168   -0.0041323582         -0.3875
C360       C    0.0095320606   -0.2052883535   -0.0002272293          -0.389
N361       N   -0.0113105949   -0.2695438507   -0.0209870393          -0.385
H362       H   -0.0465134789   -0.2330865115   -0.0437002729         -0.3848
H363       H   -0.0436182700   -0.1867867104   -0.0372990558         -0.3873
H364       H    0.0265270571   -0.1995572190    0.0126604291          0.6098
H365       H    0.0227760246   -0.2451500194    0.0056835995         -0.3876
N366       N   -0.0306486750   -0.2800775859   -0.0349191011         -0.3843
C367       C   -0.0336205610   -0.3101022738   -0.0303770632         -0.3896
C368       C   -0.0094790471   -0.3235041702   -0.0146239665         -0.3897
N369       N   -0.0115067900   -0.3533022836   -0.0169612091         -0.3894
N370       N   -0.0246598236   -0.3489177002   -0.0348071720         -0.3827
N371       N   -0.0442839800   -0.3299278478   -0.0316453814          0.6058
N372       N    0.0017345629   -0.3690252076    0.0009308369          0.6036
H373       H    0.0102764941   -0.3167220549   -0.0229042546         -0.3739
H374       H   -0.0104279715   -0.3175576390    0.0069909700          0.5941
H375       H   -0.0533589038   -0.3138548479   -0.0201028844          0.5932
N376       N   -0.0000000000   -0.3951629738    0.0000000000           0.603
C313       C    0.0000000000    0.1048370262    0.0000000000          0.6078
C314       C    0.0155713595    0.1147313706   -0.0201388349          0.6088
C315       C    0.0173619860    0.1416392206   -0.0244501456          0.6097
C316       C    0.0037202402    0.1600097869   -0.0088884949          0.6095
C317       C   -0.0114400823    0.1493423319    0.0115190045          0.6081
C318       C   -0.0132660484    0.1227033255    0.0158636230          0.6073
C319       C    0.0047745636    0.1874382392   -0.0133007791         -0.3891
H320       H    0.0303726995    0.1474758644   -0.0413664802         -0.3894
H321       H    0.0268611021    0.1009573552   -0.0335070026          0.6092
H322       H   -0.0261540385    0.1163139457    0.0328417700          0.6063
H323       H   -0.0233111292    0.1612856209    0.0258038803          0.6077
C324       C    0.0196044628    0.1987282144   -0.0336543375         -0.3875
C325       C    0.0203124207    0.2256788714   -0.0379009885          -0.386
C326       C    0.0061734218    0.2430549772   -0.0219184414          -0.386
C327       C   -0.0085000847    0.2320325168   -0.0018804112         -0.3875
C328       C   -0.0092311216    0.2052883535    0.0023870918          -0.389
N329       N    0.0051428224    0.2695438507   -0.0232795351          -0.385
H330       H    0.0327960628    0.2330865115   -0.0547506697         -0.3848
H331       H    0.0317609506    0.1867867104   -0.0478018311         -0.3873
H332       H   -0.0220558716    0.1995572190    0.0194296101          0.6098
H333       H   -0.0203548806    0.2451500194    0.0116931364         -0.3876
N334       N    0.0199359173    0.2800775859   -0.0419671789         -0.3843
C335       C    0.0240362142    0.3101022738   -0.0384105259         -0.3896
C336       C    0.0051204318    0.3235041702   -0.0166581484         -0.3897
N337       N    0.0064320384    0.3533022836   -0.0194606709         -0.3894
N338       N    0.0142057641    0.3489177002   -0.0402224115         -0.3827
N339       N    0.0339467832    0.3299278478   -0.0425454694          0.6058
N340       N   -0.0014140456    0.3690252076    0.0013695404          0.6036
H341       H   -0.0161461510    0.3167220549   -0.0192227213         -0.3739
H342       H    0.0119418329    0.3175576390    0.0038741292          0.5941
H343       H    0.0458312999    0.3138548479   -0.0339233036          0.5932
N344       N    0.0000000000    0.3951629738    0.0000000000           0.603
C281       C   -0.1048370262   -0.0000000000    0.0000000000          0.6078
C282       C   -0.1147313706    0.0233755661   -0.0100808142          0.6088
C283       C   -0.1416392206    0.0270298438   -0.0129859816          0.6097
C284       C   -0.1600097869    0.0075589004   -0.0059756635          0.6095
C285       C   -0.1493423319   -0.0155871161    0.0045392464          0.6081
C286       C   -0.1227033255   -0.0192884422    0.0074564449          0.6073
C287       C   -0.1874382392    0.0106178386   -0.0093257003         -0.3891
H288       H   -0.1474758644    0.0466046088   -0.0214871355         -0.3894
H289       H   -0.1009573552    0.0397265175   -0.0163107890          0.6092
H290       H   -0.1163139457   -0.0387857598    0.0160711052          0.6063
H291       H   -0.1612856209   -0.0328905575    0.0112898277          0.6077
C292       C   -0.1987282144    0.0334486314   -0.0199534071         -0.3875
C293       C   -0.2256788714    0.0361243151   -0.0233262347          -0.386
C294       C   -0.2430549772    0.0160144975   -0.0161884242          -0.386
C295       C   -0.2320325168   -0.0065266782   -0.0057610640         -0.3875
C296       C   -0.2052883535   -0.0092326517   -0.0023811668          -0.389
N297       N   -0.2695438507    0.0157718197   -0.0178783410          -0.385
H298       H   -0.2330865115    0.0552056429   -0.0320242809         -0.3848
H299       H   -0.1867867104    0.0509352991   -0.0264455732         -0.3873
H300       H   -0.1995572190   -0.0287058061    0.0063204367          0.6098
H301       H   -0.2451500194   -0.0234714714    0.0003750068         -0.3876
N302       N   -0.2800775859    0.0377637649   -0.0270662698         -0.3843
C303       C   -0.3101022738    0.0396291846   -0.0219689741         -0.3896
C304       C   -0.3235041702    0.0125461151   -0.0120957730         -0.3897
N305       N   -0.3533022836    0.0150507084   -0.0139127642         -0.3894
N306       N   -0.3489177002    0.0319053172   -0.0283142519         -0.3827
N307       N   -0.3299278478    0.0503026416   -0.0207881049          0.6058
N308       N   -0.3690252076   -0.0019003644    0.0005135959          0.6036
H309       H   -0.3167220549   -0.0048193884   -0.0246370596         -0.3739
H310       H   -0.3175576390    0.0085726802    0.0091719902          0.5941
H311       H   -0.3138548479    0.0565261459   -0.0074895533          0.5932
N312       N   -0.3951629738   -0.0000000000    0.0000000000           0.603
C249       C    0.3951629738   -0.0000000000    0.0000000000          0.6078
C250       C    0.3852686294    0.0185088636   -0.0174774677          0.6088
C251       C    0.3583607794    0.0209470530   -0.0214585448          0.6097
C252       C    0.3399902131    0.0050549543   -0.0082032290          0.6095
C253       C    0.3506576681   -0.0130895614    0.0096034539          0.6081
C254       C    0.3772966745   -0.0155678327    0.0136119492          0.6073
C255       C    0.3125617608    0.0067814412   -0.0123983563         -0.3891
H256       H    0.3525241356    0.0364260646   -0.0361500812         -0.3894
H257       H    0.3990426448    0.0317369643   -0.0289310064          0.6092
H258       H    0.3836860543   -0.0309352042    0.0283835996          0.6063
H259       H    0.3387143791   -0.0270342255    0.0218723486          0.6077
C260       C    0.3012717856    0.0245911657   -0.0302030457         -0.3875
C261       C    0.2743211286    0.0259497737   -0.0342883159          -0.386
C262       C    0.2569450228    0.0095011117   -0.0206943975          -0.386
C263       C    0.2679674832   -0.0081051347   -0.0031771336         -0.3875
C264       C    0.2947116465   -0.0094897789    0.0009251532          -0.389
N265       N    0.2304561493    0.0086942962   -0.0221989772          -0.385
H266       H    0.2669134885    0.0408977565   -0.0489958272         -0.3848
H267       H    0.3132132896    0.0387964837   -0.0422919129         -0.3873
H268       H    0.3004427810   -0.0248046697    0.0157702119          0.6098
H269       H    0.2548499806   -0.0219233211    0.0083915788         -0.3876
N270       N    0.2199224141    0.0262090530   -0.0383636604         -0.3843
C271       C    0.1898977262    0.0297075237   -0.0342136103         -0.3896
C272       C    0.1764958298    0.0076443006   -0.0156613345         -0.3897
N273       N    0.1466977164    0.0093750591   -0.0182262749         -0.3894
N274       N    0.1510822998    0.0202775135   -0.0375295693         -0.3827
N275       N    0.1700721522    0.0401398427   -0.0367599521          0.6058
N276       N    0.1309747924   -0.0016095055    0.0011334275          0.6036
H277       H    0.1832779451   -0.0129663632   -0.0214961539         -0.3739
H278       H    0.1824423610    0.0111956636    0.0056809652          0.5941
H279       H    0.1861451521    0.0505418195   -0.0263974062          0.5932
N280       N    0.1048370262   -0.0000000000    0.0000000000           0.603
C217       C    0.0000000000    0.0000000000   -0.1048370262          0.6078
C218       C    0.0236924328   -0.0093117418   -0.1147313706          0.6088
C219       C    0.0274396730   -0.0120959712   -0.1416392206          0.6097
C220       C    0.0077500931   -0.0057255206   -0.1600097869          0.6095
C221       C   -0.0157270947    0.0040275846   -0.1493423319          0.6081
C222       C   -0.0195217513    0.0068223017   -0.1227033255          0.6073
C223       C    0.0109168457   -0.0089738321   -0.1874382392         -0.3891
H224       H    0.0472817254   -0.0199530700   -0.1474758644         -0.3894
H225       H    0.0402381920   -0.0150041973   -0.1009573552          0.6092
H226       H   -0.0392901059    0.0147953764   -0.1163139457          0.6063
H227       H   -0.0332418440    0.0102092505   -0.1612856209          0.6077
C228       C    0.0340826633   -0.0188499725   -0.1987282144         -0.3875
C229       C    0.0368671105   -0.0221335837   -0.2256788714          -0.386
C230       C    0.0165348323   -0.0156565811   -0.2430549772          -0.386
C231       C   -0.0063349774   -0.0059712183   -0.2320325168         -0.3875
C232       C   -0.0091499292   -0.0026815309   -0.2052883535          -0.389
N233       N    0.0163474944   -0.0173535242   -0.2695438507          -0.385
H234       H    0.0562224217   -0.0302035904   -0.2330865115         -0.3848
H235       H    0.0517720984   -0.0247673750   -0.1867867104         -0.3873
H236       H   -0.0288969740    0.0053792300   -0.1995572190          0.6098
H237       H   -0.0234711935   -0.0003920178   -0.2451500194         -0.3876
N238       N    0.0386278739   -0.0258180607   -0.2800775859         -0.3843
C239       C    0.0403257667   -0.0206625418   -0.3101022738         -0.3896
C240       C    0.0129345925   -0.0116794284   -0.3235041702         -0.3897
N241       N    0.0154972107   -0.0134136233   -0.3533022836         -0.3894
N242       N    0.0328133257   -0.0272567749   -0.3489177002         -0.3827
N243       N    0.0509549464   -0.0191335960   -0.3299278478          0.6058
N244       N   -0.0019161294    0.0004512359   -0.3690252076          0.6036
H245       H   -0.0040119110   -0.0247813595   -0.3167220549         -0.3739
H246       H    0.0082684506    0.0094471676   -0.3175576390          0.5941
H247       H    0.0567406583   -0.0056388186   -0.3138548479          0.5932
N248       N   -0.0000000000    0.0000000000   -0.3951629738           0.603
C185       C   -0.0000000000    0.0000000000    0.3951629738          0.6078
C186       C   -0.0016957937    0.0254000825    0.3852686294          0.6088
C187       C   -0.0007780919    0.0299773706    0.3583607794          0.6097
C188       C    0.0018682886    0.0094527788    0.3399902131          0.6095
C189       C    0.0030730693   -0.0159411164    0.3506576681          0.6081
C190       C    0.0021661295   -0.0205657593    0.3772966745          0.6073
C191       C    0.0034534962    0.0137033042    0.3125617608         -0.3891
H192       H   -0.0021452524    0.0512745985    0.3525241356         -0.3894
H193       H   -0.0036129294    0.0427923448    0.3990426448          0.6092
H194       H    0.0033969500   -0.0418458638    0.3836860543          0.6063
H195       H    0.0049615638   -0.0344184815    0.3387143791          0.6077
C196       C    0.0024929190    0.0388681715    0.3012717856         -0.3875
C197       C    0.0042732815    0.0427880641    0.2743211286          -0.386
C198       C    0.0070977267    0.0216368086    0.2569450228          -0.386
C199       C    0.0081044294   -0.0031789323    0.2679674832         -0.3875
C200       C    0.0063315971   -0.0071290035    0.2947116465          -0.389
N201       N    0.0087121992    0.0221919571    0.2304561493          -0.385
H202       H    0.0033064721    0.0637360558    0.2669134885         -0.3848
H203       H    0.0002908742    0.0573906650    0.3132132896         -0.3873
H204       H    0.0074740274   -0.0284272780    0.3004427810          0.6098
H205       H    0.0103760875   -0.0210567663    0.2548499806         -0.3876
N206       N    0.0068532192    0.0459534361    0.2199224141         -0.3843
C207       C    0.0014663140    0.0452875040    0.1898977262         -0.3896
C208       C    0.0050385423    0.0166830998    0.1764958298         -0.3897
N209       N    0.0055125393    0.0197408394    0.1466977164         -0.3894
N210       N    0.0106368598    0.0413098455    0.1510822998         -0.3827
N211       N   -0.0044546445    0.0542462644    0.1700721522          0.6058
N212       N    0.0004101021   -0.0019253525    0.1309747924          0.6036
H213       H    0.0241218670    0.0069531821    0.1832779451         -0.3739
H214       H   -0.0120731478    0.0034431604    0.1824423610          0.5941
H215       H   -0.0191278328    0.0537161483    0.1861451521          0.5932
N216       N    0.0000000000   -0.0000000000    0.1048370262           0.603
loop_
_geom_bond_atom_site_label_1
_geom_bond_atom_site_label_2
_geom_bond_distance
_geom_bond_site_symmetry_2
_ccdc_geom_bond_type
Zn1          O5 1.942       .   S
Zn1          O6 1.922       .   S
Zn1         O10 1.922       .   S
Zn1         O17 1.922       .   S
Zn2          O5 1.942       .   S
Zn2          O7 1.922       .   S
Zn2          O9 1.922       .   S
Zn2         O13 1.922       .   S
Zn3          O5 1.942       .   S
Zn3          O8 1.922       .   S
Zn3         O11 1.922       .   S
Zn3         O14 1.922       .   S
Zn4          O5 1.942       .   S
Zn4         O12 1.922       .   S
Zn4         O15 1.922       .   S
Zn4         O16 1.922       .   S
O6          C18 1.304       .   A
O7          C19 1.304       .   A
O8          C20 1.304       .   A
O9          C18 1.304       .   A
O10         C20 1.304       .   A
O11         C19 1.304       .   A
O12         C21 1.304       .   A
O13         C22 1.304       .   A
O14         C21 1.304       .   A
O15         C22 1.304       .   A
O16         C23 1.304       .   A
O17         C23 1.304       .   A
C18        N216 1.540       .   S
C19        N280 1.540       .   S
C20        C345 1.540       .   S
C21        C217 1.540       .   S
C22        C313 1.540       .   S
C23        C281 1.540       .   S
Zn24        O28 1.942       .   S
Zn24        O29 1.922       .   S
Zn24        O33 1.922       .   S
Zn24        O40 1.922       .   S
Zn25        O28 1.942       .   S
Zn25        O30 1.922       .   S
Zn25        O32 1.922       .   S
Zn25        O36 1.922       .   S
Zn26        O28 1.942       .   S
Zn26        O31 1.922       .   S
Zn26        O34 1.922       .   S
Zn26        O37 1.922       .   S
Zn27        O28 1.942       .   S
Zn27        O35 1.922       .   S
Zn27        O38 1.922       .   S
Zn27        O39 1.922       .   S
O29         C41 1.304       .   A
O30         C42 1.304       .   A
O31         C43 1.304       .   A
O32         C41 1.304       .   A
O33         C43 1.304       .   A
O34         C42 1.304       .   A
O35         C44 1.304       .   A
O36         C45 1.304       .   A
O37         C44 1.304       .   A
O38         C45 1.304       .   A
O39         C46 1.304       .   A
O40         C46 1.304       .   A
C41        C473 1.540       .   S
C42        C377 1.540       .   S
C43        C185 1.540   1_655   S
C44        N472 1.540       .   S
C45        N248 1.540   1_656   S
C46        C409 1.540       .   S
Zn47        O51 1.942       .   S
Zn47        O52 1.922       .   S
Zn47        O56 1.922       .   S
Zn47        O63 1.922       .   S
Zn48        O51 1.942       .   S
Zn48        O53 1.922       .   S
Zn48        O55 1.922       .   S
Zn48        O59 1.922       .   S
Zn49        O51 1.942       .   S
Zn49        O54 1.922       .   S
Zn49        O57 1.922       .   S
Zn49        O60 1.922       .   S
Zn50        O51 1.942       .   S
Zn50        O58 1.922       .   S
Zn50        O61 1.922       .   S
Zn50        O62 1.922       .   S
O52         C64 1.304       .   A
O53         C65 1.304       .   A
O54         C66 1.304       .   A
O55         C64 1.304       .   A
O56         C66 1.304       .   A
O57         C65 1.304       .   A
O58         C67 1.304       .   A
O59         C68 1.304       .   A
O60         C67 1.304       .   A
O61         C68 1.304       .   A
O62         C69 1.304       .   A
O63         C69 1.304       .   A
C64        N536 1.540       .   S
C65        N632 1.540       .   S
C66        N376 1.540   1_665   S
C67        N568 1.540       .   S
C68        N344 1.540   1_655   S
C69        C569 1.540       .   S
Zn70        O74 1.942       .   S
Zn70        O75 1.922       .   S
Zn70        O79 1.922       .   S
Zn70        O86 1.922       .   S
Zn71        O74 1.942       .   S
Zn71        O76 1.922       .   S
Zn71        O78 1.922       .   S
Zn71        O82 1.922       .   S
Zn72        O74 1.942       .   S
Zn72        O77 1.922       .   S
Zn72        O80 1.922       .   S
Zn72        O83 1.922       .   S
Zn73        O74 1.942       .   S
Zn73        O81 1.922       .   S
Zn73        O84 1.922       .   S
Zn73        O85 1.922       .   S
O75         C87 1.304       .   A
O76         C88 1.304       .   A
O77         C89 1.304       .   A
O78         C87 1.304       .   A
O79         C89 1.304       .   A
O80         C88 1.304       .   A
O81         C90 1.304       .   A
O82         C91 1.304       .   A
O83         C90 1.304       .   A
O84         C91 1.304       .   A
O85         C92 1.304       .   A
O86         C92 1.304       .   A
C87        C441 1.540       .   S
C88        C505 1.540       .   S
C89        N696 1.540       .   S
C90        N504 1.540   1_565   S
C91        C633 1.540       .   S
C92        C537 1.540   1_556   S
Zn93        O97 1.942       .   S
Zn93        O98 1.922       .   S
Zn93       O102 1.922       .   S
Zn93       O109 1.922       .   S
Zn94        O97 1.942       .   S
Zn94        O99 1.922       .   S
Zn94       O101 1.922       .   S
Zn94       O105 1.922       .   S
Zn95        O97 1.942       .   S
Zn95       O100 1.922       .   S
Zn95       O103 1.922       .   S
Zn95       O106 1.922       .   S
Zn96        O97 1.942       .   S
Zn96       O104 1.922       .   S
Zn96       O107 1.922       .   S
Zn96       O108 1.922       .   S
O98        C110 1.304       .   A
O99        C111 1.304       .   A
O100       C112 1.304       .   A
O101       C110 1.304       .   A
O102       C112 1.304       .   A
O103       C111 1.304       .   A
O104       C113 1.304       .   A
O105       C114 1.304       .   A
O106       C113 1.304       .   A
O107       C114 1.304       .   A
O108       C115 1.304       .   A
O109       C115 1.304       .   A
C110       C249 1.540   1_565   S
C111       C697 1.540       .   S
C112       C793 1.540       .   S
C113       N312 1.540   1_665   S
C114       C761 1.540       .   S
C115       C729 1.540       .   S
Zn116      O120 1.942       .   S
Zn116      O121 1.922       .   S
Zn116      O125 1.922       .   S
Zn116      O132 1.922       .   S
Zn117      O120 1.942       .   S
Zn117      O122 1.922       .   S
Zn117      O124 1.922       .   S
Zn117      O128 1.922       .   S
Zn118      O120 1.942       .   S
Zn118      O123 1.922       .   S
Zn118      O126 1.922       .   S
Zn118      O129 1.922       .   S
Zn119      O120 1.942       .   S
Zn119      O127 1.922       .   S
Zn119      O130 1.922       .   S
Zn119      O131 1.922       .   S
O121       C133 1.304       .   A
O122       C134 1.304       .   A
O123       C135 1.304       .   A
O124       C133 1.304       .   A
O125       C135 1.304       .   A
O126       C134 1.304       .   A
O127       C136 1.304       .   A
O128       C137 1.304       .   A
O129       C136 1.304       .   A
O130       C137 1.304       .   A
O131       C138 1.304       .   A
O132       C138 1.304       .   A
C133       N408 1.540   1_465   S
C134       N728 1.540       .   S
C135       C825 1.540       .   S
C136       N440 1.540   1_565   S
C137       C857 1.540       .   S
C138       N760 1.540   1_556   S
Zn139      O143 1.942       .   S
Zn139      O144 1.922       .   S
Zn139      O148 1.922       .   S
Zn139      O155 1.922       .   S
Zn140      O143 1.942       .   S
Zn140      O145 1.922       .   S
Zn140      O147 1.922       .   S
Zn140      O151 1.922       .   S
Zn141      O143 1.942       .   S
Zn141      O146 1.922       .   S
Zn141      O149 1.922       .   S
Zn141      O152 1.922       .   S
Zn142      O143 1.942       .   S
Zn142      O150 1.922       .   S
Zn142      O153 1.922       .   S
Zn142      O154 1.922       .   S
O144       C156 1.304       .   A
O145       C157 1.304       .   A
O146       C158 1.304       .   A
O147       C156 1.304       .   A
O148       C158 1.304       .   A
O149       C157 1.304       .   A
O150       C159 1.304       .   A
O151       C160 1.304       .   A
O152       C159 1.304       .   A
O153       C160 1.304       .   A
O154       C161 1.304       .   A
O155       C161 1.304       .   A
C156       C921 1.540       .   S
C157       N792 1.540   1_545   S
C158       C601 1.540       .   S
C159       C889 1.540       .   S
C160       N600 1.540   1_455   S
C161       N824 1.540       .   S
Zn162      O166 1.942       .   S
Zn162      O167 1.922       .   S
Zn162      O171 1.922       .   S
Zn162      O178 1.922       .   S
Zn163      O166 1.942       .   S
Zn163      O168 1.922       .   S
Zn163      O170 1.922       .   S
Zn163      O174 1.922       .   S
Zn164      O166 1.942       .   S
Zn164      O169 1.922       .   S
Zn164      O172 1.922       .   S
Zn164      O175 1.922       .   S
Zn165      O166 1.942       .   S
Zn165      O173 1.922       .   S
Zn165      O176 1.922       .   S
Zn165      O177 1.922       .   S
O167       C179 1.304       .   A
O168       C180 1.304       .   A
O169       C181 1.304       .   A
O170       C179 1.304       .   A
O171       C181 1.304       .   A
O172       C180 1.304       .   A
O173       C182 1.304       .   A
O174       C183 1.304       .   A
O175       C182 1.304       .   A
O176       C183 1.304       .   A
O177       C184 1.304       .   A
O178       C184 1.304       .   A
C179       N664 1.540   1_455   S
C180       N856 1.540   1_545   S
C181       N920 1.540       .   S
C182       C665 1.540       .   S
C183       N952 1.540   1_556   S
C184       N888 1.540       .   S
C921       C922 0.024       .   A
C921       C926 0.024       .   A
C922       C923 0.024       .   A
C922       H929 0.020       .   A
C923       C924 0.024       .   A
C923       H928 0.019       .   A
C924       C925 0.024       .   A
C924       C927 0.024       .   A
C925       C926 0.024       .   A
C925       H931 0.019       .   A
C926       H930 0.020       .   A
C927       C932 0.024       .   A
C927       C936 0.024       .   A
C932       C933 0.024       .   A
C932       H939 0.019       .   A
C933       C934 0.024       .   A
C933       H938 0.020       .   A
C934       C935 0.024       .   A
C934       N937 0.023       .   A
C935       C936 0.024       .   A
C935       H941 0.020       .   A
C936       H940 0.019       .   A
N937       N942 0.023       .   A
N942       C943 0.027       .   A
C943       C944 0.028       .   A
C943       N947 0.020       .   A
C943       H951 0.020       .   A
C944       N945 0.026       .   A
C944       H949 0.020       .   A
C944       H950 0.020       .   A
N945       N946 0.020       .   A
N945       N948 0.024       .   A
N946       N947 0.024       .   A
N948       N952 0.023       .   A
C889       C890 0.024       .   A
C889       C894 0.024       .   A
C890       C891 0.024       .   A
C890       H897 0.020       .   A
C891       C892 0.024       .   A
C891       H896 0.019       .   A
C892       C893 0.024       .   A
C892       C895 0.024       .   A
C893       C894 0.024       .   A
C893       H899 0.019       .   A
C894       H898 0.020       .   A
C895       C900 0.024       .   A
C895       C904 0.024       .   A
C900       C901 0.024       .   A
C900       H907 0.019       .   A
C901       C902 0.024       .   A
C901       H906 0.020       .   A
C902       C903 0.024       .   A
C902       N905 0.023       .   A
C903       C904 0.024       .   A
C903       H909 0.020       .   A
C904       H908 0.019       .   A
N905       N910 0.023       .   A
N910       C911 0.027       .   A
C911       C912 0.028       .   A
C911       N915 0.020       .   A
C911       H919 0.020       .   A
C912       N913 0.026       .   A
C912       H917 0.020       .   A
C912       H918 0.020       .   A
N913       N914 0.020       .   A
N913       N916 0.024       .   A
N914       N915 0.024       .   A
N916       N920 0.023       .   A
C857       C858 0.024       .   A
C857       C862 0.024       .   A
C858       C859 0.024       .   A
C858       H865 0.020       .   A
C859       C860 0.024       .   A
C859       H864 0.019       .   A
C860       C861 0.024       .   A
C860       C863 0.024       .   A
C861       C862 0.024       .   A
C861       H867 0.019       .   A
C862       H866 0.020       .   A
C863       C868 0.024       .   A
C863       C872 0.024       .   A
C868       C869 0.024       .   A
C868       H875 0.019       .   A
C869       C870 0.024       .   A
C869       H874 0.020       .   A
C870       C871 0.024       .   A
C870       N873 0.023       .   A
C871       C872 0.024       .   A
C871       H877 0.020       .   A
C872       H876 0.019       .   A
N873       N878 0.023       .   A
N878       C879 0.027       .   A
C879       C880 0.028       .   A
C879       N883 0.020       .   A
C879       H887 0.020       .   A
C880       N881 0.026       .   A
C880       H885 0.020       .   A
C880       H886 0.020       .   A
N881       N882 0.020       .   A
N881       N884 0.024       .   A
N882       N883 0.024       .   A
N884       N888 0.023       .   A
C825       C826 0.024       .   A
C825       C830 0.024       .   A
C826       C827 0.024       .   A
C826       H833 0.020       .   A
C827       C828 0.024       .   A
C827       H832 0.019       .   A
C828       C829 0.024       .   A
C828       C831 0.024       .   A
C829       C830 0.024       .   A
C829       H835 0.019       .   A
C830       H834 0.020       .   A
C831       C836 0.024       .   A
C831       C840 0.024       .   A
C836       C837 0.024       .   A
C836       H843 0.019       .   A
C837       C838 0.024       .   A
C837       H842 0.020       .   A
C838       C839 0.024       .   A
C838       N841 0.023       .   A
C839       C840 0.024       .   A
C839       H845 0.020       .   A
C840       H844 0.019       .   A
N841       N846 0.023       .   A
N846       C847 0.027       .   A
C847       C848 0.028       .   A
C847       N851 0.020       .   A
C847       H855 0.020       .   A
C848       N849 0.026       .   A
C848       H853 0.020       .   A
C848       H854 0.020       .   A
N849       N850 0.020       .   A
N849       N852 0.024       .   A
N850       N851 0.024       .   A
N852       N856 0.023       .   A
C793       C794 0.024       .   A
C793       C798 0.024       .   A
C794       C795 0.024       .   A
C794       H801 0.020       .   A
C795       C796 0.024       .   A
C795       H800 0.019       .   A
C796       C797 0.024       .   A
C796       C799 0.024       .   A
C797       C798 0.024       .   A
C797       H803 0.019       .   A
C798       H802 0.020       .   A
C799       C804 0.024       .   A
C799       C808 0.024       .   A
C804       C805 0.024       .   A
C804       H811 0.019       .   A
C805       C806 0.024       .   A
C805       H810 0.020       .   A
C806       C807 0.024       .   A
C806       N809 0.023       .   A
C807       C808 0.024       .   A
C807       H813 0.020       .   A
C808       H812 0.019       .   A
N809       N814 0.023       .   A
N814       C815 0.027       .   A
C815       C816 0.028       .   A
C815       N819 0.020       .   A
C815       H823 0.020       .   A
C816       N817 0.026       .   A
C816       H821 0.020       .   A
C816       H822 0.020       .   A
N817       N818 0.020       .   A
N817       N820 0.024       .   A
N818       N819 0.024       .   A
N820       N824 0.023       .   A
C761       C762 0.024       .   A
C761       C766 0.024       .   A
C762       C763 0.024       .   A
C762       H769 0.020       .   A
C763       C764 0.024       .   A
C763       H768 0.019       .   A
C764       C765 0.024       .   A
C764       C767 0.024       .   A
C765       C766 0.024       .   A
C765       H771 0.019       .   A
C766       H770 0.020       .   A
C767       C772 0.024       .   A
C767       C776 0.024       .   A
C772       C773 0.024       .   A
C772       H779 0.019       .   A
C773       C774 0.024       .   A
C773       H778 0.020       .   A
C774       C775 0.024       .   A
C774       N777 0.023       .   A
C775       C776 0.024       .   A
C775       H781 0.020       .   A
C776       H780 0.019       .   A
N777       N782 0.023       .   A
N782       C783 0.027       .   A
C783       C784 0.028       .   A
C783       N787 0.020       .   A
C783       H791 0.020       .   A
C784       N785 0.026       .   A
C784       H789 0.020       .   A
C784       H790 0.020       .   A
N785       N786 0.020       .   A
N785       N788 0.024       .   A
N786       N787 0.024       .   A
N788       N792 0.023       .   A
C729       C730 0.024       .   A
C729       C734 0.024       .   A
C730       C731 0.024       .   A
C730       H737 0.020       .   A
C731       C732 0.024       .   A
C731       H736 0.019       .   A
C732       C733 0.024       .   A
C732       C735 0.024       .   A
C733       C734 0.024       .   A
C733       H739 0.019       .   A
C734       H738 0.020       .   A
C735       C740 0.024       .   A
C735       C744 0.024       .   A
C740       C741 0.024       .   A
C740       H747 0.019       .   A
C741       C742 0.024       .   A
C741       H746 0.020       .   A
C742       C743 0.024       .   A
C742       N745 0.023       .   A
C743       C744 0.024       .   A
C743       H749 0.020       .   A
C744       H748 0.019       .   A
N745       N750 0.023       .   A
N750       C751 0.027       .   A
C751       C752 0.028       .   A
C751       N755 0.020       .   A
C751       H759 0.020       .   A
C752       N753 0.026       .   A
C752       H757 0.020       .   A
C752       H758 0.020       .   A
N753       N754 0.020       .   A
N753       N756 0.024       .   A
N754       N755 0.024       .   A
N756       N760 0.023       .   A
C697       C698 0.024       .   A
C697       C702 0.024       .   A
C698       C699 0.024       .   A
C698       H705 0.020       .   A
C699       C700 0.024       .   A
C699       H704 0.019       .   A
C700       C701 0.024       .   A
C700       C703 0.024       .   A
C701       C702 0.024       .   A
C701       H707 0.019       .   A
C702       H706 0.020       .   A
C703       C708 0.024       .   A
C703       C712 0.024       .   A
C708       C709 0.024       .   A
C708       H715 0.019       .   A
C709       C710 0.024       .   A
C709       H714 0.020       .   A
C710       C711 0.024       .   A
C710       N713 0.023       .   A
C711       C712 0.024       .   A
C711       H717 0.020       .   A
C712       H716 0.019       .   A
N713       N718 0.023       .   A
N718       C719 0.027       .   A
C719       C720 0.028       .   A
C719       N723 0.020       .   A
C719       H727 0.020       .   A
C720       N721 0.026       .   A
C720       H725 0.020       .   A
C720       H726 0.020       .   A
N721       N722 0.020       .   A
N721       N724 0.024       .   A
N722       N723 0.024       .   A
N724       N728 0.023       .   A
C665       C666 0.024       .   A
C665       C670 0.024       .   A
C666       C667 0.024       .   A
C666       H673 0.020       .   A
C667       C668 0.024       .   A
C667       H672 0.019       .   A
C668       C669 0.024       .   A
C668       C671 0.024       .   A
C669       C670 0.024       .   A
C669       H675 0.019       .   A
C670       H674 0.020       .   A
C671       C676 0.024       .   A
C671       C680 0.024       .   A
C676       C677 0.024       .   A
C676       H683 0.019       .   A
C677       C678 0.024       .   A
C677       H682 0.020       .   A
C678       C679 0.024       .   A
C678       N681 0.023       .   A
C679       C680 0.024       .   A
C679       H685 0.020       .   A
C680       H684 0.019       .   A
N681       N686 0.023       .   A
N686       C687 0.027       .   A
C687       C688 0.028       .   A
C687       N691 0.020       .   A
C687       H695 0.020       .   A
C688       N689 0.026       .   A
C688       H693 0.020       .   A
C688       H694 0.020       .   A
N689       N690 0.020       .   A
N689       N692 0.024       .   A
N690       N691 0.024       .   A
N692       N696 0.023       .   A
C633       C634 0.024       .   A
C633       C638 0.024       .   A
C634       C635 0.024       .   A
C634       H641 0.020       .   A
C635       C636 0.024       .   A
C635       H640 0.019       .   A
C636       C637 0.024       .   A
C636       C639 0.024       .   A
C637       C638 0.024       .   A
C637       H643 0.019       .   A
C638       H642 0.020       .   A
C639       C644 0.024       .   A
C639       C648 0.024       .   A
C644       C645 0.024       .   A
C644       H651 0.019       .   A
C645       C646 0.024       .   A
C645       H650 0.020       .   A
C646       C647 0.024       .   A
C646       N649 0.023       .   A
C647       C648 0.024       .   A
C647       H653 0.020       .   A
C648       H652 0.019       .   A
N649       N654 0.023       .   A
N654       C655 0.027       .   A
C655       C656 0.028       .   A
C655       N659 0.020       .   A
C655       H663 0.020       .   A
C656       N657 0.026       .   A
C656       H661 0.020       .   A
C656       H662 0.020       .   A
N657       N658 0.020       .   A
N657       N660 0.024       .   A
N658       N659 0.024       .   A
N660       N664 0.023       .   A
C601       C602 0.024       .   A
C601       C606 0.024       .   A
C602       C603 0.024       .   A
C602       H609 0.020       .   A
C603       C604 0.024       .   A
C603       H608 0.019       .   A
C604       C605 0.024       .   A
C604       C607 0.024       .   A
C605       C606 0.024       .   A
C605       H611 0.019       .   A
C606       H610 0.020       .   A
C607       C612 0.024       .   A
C607       C616 0.024       .   A
C612       C613 0.024       .   A
C612       H619 0.019       .   A
C613       C614 0.024       .   A
C613       H618 0.020       .   A
C614       C615 0.024       .   A
C614       N617 0.023       .   A
C615       C616 0.024       .   A
C615       H621 0.020       .   A
C616       H620 0.019       .   A
N617       N622 0.023       .   A
N622       C623 0.027       .   A
C623       C624 0.028       .   A
C623       N627 0.020       .   A
C623       H631 0.020       .   A
C624       N625 0.026       .   A
C624       H629 0.020       .   A
C624       H630 0.020       .   A
N625       N626 0.020       .   A
N625       N628 0.024       .   A
N626       N627 0.024       .   A
N628       N632 0.023       .   A
C569       C570 0.024       .   A
C569       C574 0.024       .   A
C570       C571 0.024       .   A
C570       H577 0.020       .   A
C571       C572 0.024       .   A
C571       H576 0.019       .   A
C572       C573 0.024       .   A
C572       C575 0.024       .   A
C573       C574 0.024       .   A
C573       H579 0.019       .   A
C574       H578 0.020       .   A
C575       C580 0.024       .   A
C575       C584 0.024       .   A
C580       C581 0.024       .   A
C580       H587 0.019       .   A
C581       C582 0.024       .   A
C581       H586 0.020       .   A
C582       C583 0.024       .   A
C582       N585 0.023       .   A
C583       C584 0.024       .   A
C583       H589 0.020       .   A
C584       H588 0.019       .   A
N585       N590 0.023       .   A
N590       C591 0.027       .   A
C591       C592 0.028       .   A
C591       N595 0.020       .   A
C591       H599 0.020       .   A
C592       N593 0.026       .   A
C592       H597 0.020       .   A
C592       H598 0.020       .   A
N593       N594 0.020       .   A
N593       N596 0.024       .   A
N594       N595 0.024       .   A
N596       N600 0.023       .   A
C537       C538 0.024       .   A
C537       C542 0.024       .   A
C538       C539 0.024       .   A
C538       H545 0.020       .   A
C539       C540 0.024       .   A
C539       H544 0.019       .   A
C540       C541 0.024       .   A
C540       C543 0.024       .   A
C541       C542 0.024       .   A
C541       H547 0.019       .   A
C542       H546 0.020       .   A
C543       C548 0.024       .   A
C543       C552 0.024       .   A
C548       C549 0.024       .   A
C548       H555 0.019       .   A
C549       C550 0.024       .   A
C549       H554 0.020       .   A
C550       C551 0.024       .   A
C550       N553 0.023       .   A
C551       C552 0.024       .   A
C551       H557 0.020       .   A
C552       H556 0.019       .   A
N553       N558 0.023       .   A
N558       C559 0.027       .   A
C559       C560 0.028       .   A
C559       N563 0.020       .   A
C559       H567 0.020       .   A
C560       N561 0.026       .   A
C560       H565 0.020       .   A
C560       H566 0.020       .   A
N561       N562 0.020       .   A
N561       N564 0.024       .   A
N562       N563 0.024       .   A
N564       N568 0.023       .   A
C505       C506 0.024       .   A
C505       C510 0.024       .   A
C506       C507 0.024       .   A
C506       H513 0.020       .   A
C507       C508 0.024       .   A
C507       H512 0.019       .   A
C508       C509 0.024       .   A
C508       C511 0.024       .   A
C509       C510 0.024       .   A
C509       H515 0.019       .   A
C510       H514 0.020       .   A
C511       C516 0.024       .   A
C511       C520 0.024       .   A
C516       C517 0.024       .   A
C516       H523 0.019       .   A
C517       C518 0.024       .   A
C517       H522 0.020       .   A
C518       C519 0.024       .   A
C518       N521 0.023       .   A
C519       C520 0.024       .   A
C519       H525 0.020       .   A
C520       H524 0.019       .   A
N521       N526 0.023       .   A
N526       C527 0.027       .   A
C527       C528 0.028       .   A
C527       N531 0.020       .   A
C527       H535 0.020       .   A
C528       N529 0.026       .   A
C528       H533 0.020       .   A
C528       H534 0.020       .   A
N529       N530 0.020       .   A
N529       N532 0.024       .   A
N530       N531 0.024       .   A
N532       N536 0.023       .   A
C473       C474 0.024       .   A
C473       C478 0.024       .   A
C474       C475 0.024       .   A
C474       H481 0.020       .   A
C475       C476 0.024       .   A
C475       H480 0.019       .   A
C476       C477 0.024       .   A
C476       C479 0.024       .   A
C477       C478 0.024       .   A
C477       H483 0.019       .   A
C478       H482 0.020       .   A
C479       C484 0.024       .   A
C479       C488 0.024       .   A
C484       C485 0.024       .   A
C484       H491 0.019       .   A
C485       C486 0.024       .   A
C485       H490 0.020       .   A
C486       C487 0.024       .   A
C486       N489 0.023       .   A
C487       C488 0.024       .   A
C487       H493 0.020       .   A
C488       H492 0.019       .   A
N489       N494 0.023       .   A
N494       C495 0.027       .   A
C495       C496 0.028       .   A
C495       N499 0.020       .   A
C495       H503 0.020       .   A
C496       N497 0.026       .   A
C496       H501 0.020       .   A
C496       H502 0.020       .   A
N497       N498 0.020       .   A
N497       N500 0.024       .   A
N498       N499 0.024       .   A
N500       N504 0.023       .   A
C441       C442 0.024       .   A
C441       C446 0.024       .   A
C442       C443 0.024       .   A
C442       H449 0.020       .   A
C443       C444 0.024       .   A
C443       H448 0.019       .   A
C444       C445 0.024       .   A
C444       C447 0.024       .   A
C445       C446 0.024       .   A
C445       H451 0.019       .   A
C446       H450 0.020       .   A
C447       C452 0.024       .   A
C447       C456 0.024       .   A
C452       C453 0.024       .   A
C452       H459 0.019       .   A
C453       C454 0.024       .   A
C453       H458 0.020       .   A
C454       C455 0.024       .   A
C454       N457 0.023       .   A
C455       C456 0.024       .   A
C455       H461 0.020       .   A
C456       H460 0.019       .   A
N457       N462 0.023       .   A
N462       C463 0.027       .   A
C463       C464 0.028       .   A
C463       N467 0.020       .   A
C463       H471 0.020       .   A
C464       N465 0.026       .   A
C464       H469 0.020       .   A
C464       H470 0.020       .   A
N465       N466 0.020       .   A
N465       N468 0.024       .   A
N466       N467 0.024       .   A
N468       N472 0.023       .   A
C409       C410 0.024       .   A
C409       C414 0.024       .   A
C410       C411 0.024       .   A
C410       H417 0.020       .   A
C411       C412 0.024       .   A
C411       H416 0.019       .   A
C412       C413 0.024       .   A
C412       C415 0.024       .   A
C413       C414 0.024       .   A
C413       H419 0.019       .   A
C414       H418 0.020       .   A
C415       C420 0.024       .   A
C415       C424 0.024       .   A
C420       C421 0.024       .   A
C420       H427 0.019       .   A
C421       C422 0.024       .   A
C421       H426 0.020       .   A
C422       C423 0.024       .   A
C422       N425 0.023       .   A
C423       C424 0.024       .   A
C423       H429 0.020       .   A
C424       H428 0.019       .   A
N425       N430 0.023       .   A
N430       C431 0.027       .   A
C431       C432 0.028       .   A
C431       N435 0.020       .   A
C431       H439 0.020       .   A
C432       N433 0.026       .   A
C432       H437 0.020       .   A
C432       H438 0.020       .   A
N433       N434 0.020       .   A
N433       N436 0.024       .   A
N434       N435 0.024       .   A
N436       N440 0.023       .   A
C377       C378 0.024       .   A
C377       C382 0.024       .   A
C378       C379 0.024       .   A
C378       H385 0.020       .   A
C379       C380 0.024       .   A
C379       H384 0.019       .   A
C380       C381 0.024       .   A
C380       C383 0.024       .   A
C381       C382 0.024       .   A
C381       H387 0.019       .   A
C382       H386 0.020       .   A
C383       C388 0.024       .   A
C383       C392 0.024       .   A
C388       C389 0.024       .   A
C388       H395 0.019       .   A
C389       C390 0.024       .   A
C389       H394 0.020       .   A
C390       C391 0.024       .   A
C390       N393 0.023       .   A
C391       C392 0.024       .   A
C391       H397 0.020       .   A
C392       H396 0.019       .   A
N393       N398 0.023       .   A
N398       C399 0.027       .   A
C399       C400 0.028       .   A
C399       N403 0.020       .   A
C399       H407 0.020       .   A
C400       N401 0.026       .   A
C400       H405 0.020       .   A
C400       H406 0.020       .   A
N401       N402 0.020       .   A
N401       N404 0.024       .   A
N402       N403 0.024       .   A
N404       N408 0.023       .   A
C345       C346 0.024       .   A
C345       C350 0.024       .   A
C346       C347 0.024       .   A
C346       H353 0.020       .   A
C347       C348 0.024       .   A
C347       H352 0.019       .   A
C348       C349 0.024       .   A
C348       C351 0.024       .   A
C349       C350 0.024       .   A
C349       H355 0.019       .   A
C350       H354 0.020       .   A
C351       C356 0.024       .   A
C351       C360 0.024       .   A
C356       C357 0.024       .   A
C356       H363 0.019       .   A
C357       C358 0.024       .   A
C357       H362 0.020       .   A
C358       C359 0.024       .   A
C358       N361 0.023       .   A
C359       C360 0.024       .   A
C359       H365 0.020       .   A
C360       H364 0.019       .   A
N361       N366 0.023       .   A
N366       C367 0.027       .   A
C367       C368 0.028       .   A
C367       N371 0.020       .   A
C367       H375 0.020       .   A
C368       N369 0.026       .   A
C368       H373 0.020       .   A
C368       H374 0.020       .   A
N369       N370 0.020       .   A
N369       N372 0.024       .   A
N370       N371 0.024       .   A
N372       N376 0.023       .   A
C313       C314 0.024       .   A
C313       C318 0.024       .   A
C314       C315 0.024       .   A
C314       H321 0.020       .   A
C315       C316 0.024       .   A
C315       H320 0.019       .   A
C316       C317 0.024       .   A
C316       C319 0.024       .   A
C317       C318 0.024       .   A
C317       H323 0.019       .   A
C318       H322 0.020       .   A
C319       C324 0.024       .   A
C319       C328 0.024       .   A
C324       C325 0.024       .   A
C324       H331 0.019       .   A
C325       C326 0.024       .   A
C325       H330 0.020       .   A
C326       C327 0.024       .   A
C326       N329 0.023       .   A
C327       C328 0.024       .   A
C327       H333 0.020       .   A
C328       H332 0.019       .   A
N329       N334 0.023       .   A
N334       C335 0.027       .   A
C335       C336 0.028       .   A
C335       N339 0.020       .   A
C335       H343 0.020       .   A
C336       N337 0.026       .   A
C336       H341 0.020       .   A
C336       H342 0.020       .   A
N337       N338 0.020       .   A
N337       N340 0.024       .   A
N338       N339 0.024       .   A
N340       N344 0.023       .   A
C281       C282 0.024       .   A
C281       C286 0.024       .   A
C282       C283 0.024       .   A
C282       H289 0.020       .   A
C283       C284 0.024       .   A
C283       H288 0.019       .   A
C284       C285 0.024       .   A
C284       C287 0.024       .   A
C285       C286 0.024       .   A
C285       H291 0.019       .   A
C286       H290 0.020       .   A
C287       C292 0.024       .   A
C287       C296 0.024       .   A
C292       C293 0.024       .   A
C292       H299 0.019       .   A
C293       C294 0.024       .   A
C293       H298 0.020       .   A
C294       C295 0.024       .   A
C294       N297 0.023       .   A
C295       C296 0.024       .   A
C295       H301 0.020       .   A
C296       H300 0.019       .   A
N297       N302 0.023       .   A
N302       C303 0.027       .   A
C303       C304 0.028       .   A
C303       N307 0.020       .   A
C303       H311 0.020       .   A
C304       N305 0.026       .   A
C304       H309 0.020       .   A
C304       H310 0.020       .   A
N305       N306 0.020       .   A
N305       N308 0.024       .   A
N306       N307 0.024       .   A
N308       N312 0.023       .   A
C249       C250 0.024       .   A
C249       C254 0.024       .   A
C250       C251 0.024       .   A
C250       H257 0.020       .   A
C251       C252 0.024       .   A
C251       H256 0.019       .   A
C252       C253 0.024       .   A
C252       C255 0.024       .   A
C253       C254 0.024       .   A
C253       H259 0.019       .   A
C254       H258 0.020       .   A
C255       C260 0.024       .   A
C255       C264 0.024       .   A
C260       C261 0.024       .   A
C260       H267 0.019       .   A
C261       C262 0.024       .   A
C261       H266 0.020       .   A
C262       C263 0.024       .   A
C262       N265 0.023       .   A
C263       C264 0.024       .   A
C263       H269 0.020       .   A
C264       H268 0.019       .   A
N265       N270 0.023       .   A
N270       C271 0.027       .   A
C271       C272 0.028       .   A
C271       N275 0.020       .   A
C271       H279 0.020       .   A
C272       N273 0.026       .   A
C272       H277 0.020       .   A
C272       H278 0.020       .   A
N273       N274 0.020       .   A
N273       N276 0.024       .   A
N274       N275 0.024       .   A
N276       N280 0.023       .   A
C217       C218 0.024       .   A
C217       C222 0.024       .   A
C218       C219 0.024       .   A
C218       H225 0.020       .   A
C219       C220 0.024       .   A
C219       H224 0.019       .   A
C220       C221 0.024       .   A
C220       C223 0.024       .   A
C221       C222 0.024       .   A
C221       H227 0.019       .   A
C222       H226 0.020       .   A
C223       C228 0.024       .   A
C223       C232 0.024       .   A
C228       C229 0.024       .   A
C228       H235 0.019       .   A
C229       C230 0.024       .   A
C229       H234 0.020       .   A
C230       C231 0.024       .   A
C230       N233 0.023       .   A
C231       C232 0.024       .   A
C231       H237 0.020       .   A
C232       H236 0.019       .   A
N233       N238 0.023       .   A
N238       C239 0.027       .   A
C239       C240 0.028       .   A
C239       N243 0.020       .   A
C239       H247 0.020       .   A
C240       N241 0.026       .   A
C240       H245 0.020       .   A
C240       H246 0.020       .   A
N241       N242 0.020       .   A
N241       N244 0.024       .   A
N242       N243 0.024       .   A
N244       N248 0.023       .   A
C185       C186 0.024       .   A
C185       C190 0.024       .   A
C186       C187 0.024       .   A
C186       H193 0.020       .   A
C187       C188 0.024       .   A
C187       H192 0.019       .   A
C188       C189 0.024       .   A
C188       C191 0.024       .   A
C189       C190 0.024       .   A
C189       H195 0.019       .   A
C190       H194 0.020       .   A
C191       C196 0.024       .   A
C191       C200 0.024       .   A
C196       C197 0.024       .   A
C196       H203 0.019       .   A
C197       C198 0.024       .   A
C197       H202 0.020       .   A
C198       C199 0.024       .   A
C198       N201 0.023       .   A
C199       C200 0.024       .   A
C199       H205 0.020       .   A
C200       H204 0.019       .   A
N201       N206 0.023       .   A
N206       C207 0.027       .   A
C207       C208 0.028       .   A
C207       N211 0.020       .   A
C207       H215 0.020       .   A
C208       N209 0.026       .   A
C208       H213 0.020       .   A
C208       H214 0.020       .   A
N209       N210 0.020       .   A
N209       N212 0.024       .   A
N210       N211 0.024       .   A
N212       N216 0.023       .   A
