data_pcu_v1-6c_Zn_1_Ch_1-56_fer_tobacco
_audit_creation_date              2021-02-03
_audit_creation_method            'tobacco_3.0'
_symmetry_space_group_name_H-M    'P1'
_symmetry_Int_Tables_number       1
_symmetry_cell_setting            triclinic
loop_
_symmetry_equiv_pos_as_xyz
  x,y,z
_cell_length_a                    41.969212604161925
_cell_length_b                    41.969212604161925
_cell_length_c                    41.969212604161925
_cell_angle_alpha                 90.0
_cell_angle_beta                  90.0
_cell_angle_gamma                 90.0
loop_
_atom_site_label
_atom_site_type_symbol
_atom_site_fract_x
_atom_site_fract_y
_atom_site_fract_z
_atom_site_charge
Zn1       Zn   -0.0267148209   -0.0267148209    0.0267148209          1.4972
Zn2       Zn    0.0267148209    0.0267148209    0.0267148209          1.4936
Zn3       Zn    0.0267148209   -0.0267148209   -0.0267148209          1.4911
Zn4       Zn   -0.0267148209    0.0267148209   -0.0267148209          1.4948
O5         O    0.0000000000    0.0000000000    0.0000000000         -2.1931
O6         O   -0.0196334396   -0.0196334396    0.0713999576         -1.0994
O7         O    0.0713999576    0.0196334396    0.0196334396         -1.0976
O8         O    0.0196334396   -0.0713999576   -0.0196334396         -1.0928
O9         O    0.0196334396    0.0196334396    0.0713999576         -1.0996
O10        O   -0.0196334396   -0.0713999576    0.0196334396         -1.0956
O11        O    0.0713999576   -0.0196334396   -0.0196334396         -1.1014
O12        O   -0.0196334396    0.0196334396   -0.0713999576         -1.0953
O13        O    0.0196334396    0.0713999576    0.0196334396         -1.1029
O14        O    0.0196334396   -0.0196334396   -0.0713999576         -1.0968
O15        O   -0.0196334396    0.0713999576   -0.0196334396         -1.1014
O16        O   -0.0713999576    0.0196334396   -0.0196334396         -1.1005
O17        O   -0.0713999576   -0.0196334396    0.0196334396         -1.0984
C18        C   -0.0000000000   -0.0000000000    0.0853673390          0.4195
C19        C    0.0853673390   -0.0000000000   -0.0000000000          0.4244
C20        C   -0.0000000000   -0.0853673390    0.0000000000           0.414
C21        C    0.0000000000    0.0000000000   -0.0853673390          0.4177
C22        C    0.0000000000    0.0853673390   -0.0000000000          0.4291
C23        C   -0.0853673390    0.0000000000    0.0000000000          0.4196
Zn24      Zn    0.9732851791    0.0267148209    0.4732851791          1.4972
Zn25      Zn    1.0267148209   -0.0267148209    0.4732851791          1.4936
Zn26      Zn    1.0267148209    0.0267148209    0.5267148209          1.4911
Zn27      Zn    0.9732851791   -0.0267148209    0.5267148209          1.4948
O28        O    1.0000000000    0.0000000000    0.5000000000         -2.1931
O29        O    0.9803665604    0.0196334396    0.4286000424         -1.0994
O30        O    1.0713999576   -0.0196334396    0.4803665604         -1.0976
O31        O    1.0196334396    0.0713999576    0.5196334396         -1.0928
O32        O    1.0196334396   -0.0196334396    0.4286000424         -1.0996
O33        O    0.9803665604    0.0713999576    0.4803665604         -1.0956
O34        O    1.0713999576    0.0196334396    0.5196334396         -1.1014
O35        O    0.9803665604   -0.0196334396    0.5713999576         -1.0953
O36        O    1.0196334396   -0.0713999576    0.4803665604         -1.1029
O37        O    1.0196334396    0.0196334396    0.5713999576         -1.0968
O38        O    0.9803665604   -0.0713999576    0.5196334396         -1.1014
O39        O    0.9286000424   -0.0196334396    0.5196334396         -1.1005
O40        O    0.9286000424    0.0196334396    0.4803665604         -1.0984
C41        C    1.0000000000    0.0000000000    0.4146326610          0.4195
C42        C    1.0853673390    0.0000000000    0.5000000000          0.4244
C43        C    1.0000000000    0.0853673390    0.5000000000           0.414
C44        C    1.0000000000    0.0000000000    0.5853673390          0.4177
C45        C    1.0000000000   -0.0853673390    0.5000000000          0.4291
C46        C    0.9146326610    0.0000000000    0.5000000000          0.4196
Zn47      Zn    1.0267148209    0.4732851791   -0.0267148209          1.4972
Zn48      Zn    0.9732851791    0.4732851791    0.0267148209          1.4936
Zn49      Zn    1.0267148209    0.5267148209    0.0267148209          1.4911
Zn50      Zn    0.9732851791    0.5267148209   -0.0267148209          1.4948
O51        O    1.0000000000    0.5000000000    0.0000000000         -2.1931
O52        O    1.0196334396    0.4286000424   -0.0196334396         -1.0994
O53        O    0.9803665604    0.4803665604    0.0713999576         -1.0976
O54        O    1.0713999576    0.5196334396    0.0196334396         -1.0928
O55        O    0.9803665604    0.4286000424    0.0196334396         -1.0996
O56        O    1.0713999576    0.4803665604   -0.0196334396         -1.0956
O57        O    1.0196334396    0.5196334396    0.0713999576         -1.1014
O58        O    0.9803665604    0.5713999576   -0.0196334396         -1.0953
O59        O    0.9286000424    0.4803665604    0.0196334396         -1.1029
O60        O    1.0196334396    0.5713999576    0.0196334396         -1.0968
O61        O    0.9286000424    0.5196334396   -0.0196334396         -1.1014
O62        O    0.9803665604    0.5196334396   -0.0713999576         -1.1005
O63        O    1.0196334396    0.4803665604   -0.0713999576         -1.0984
C64        C    1.0000000000    0.4146326610    0.0000000000          0.4195
C65        C    1.0000000000    0.5000000000    0.0853673390          0.4244
C66        C    1.0853673390    0.5000000000    0.0000000000           0.414
C67        C    1.0000000000    0.5853673390    0.0000000000          0.4177
C68        C    0.9146326610    0.5000000000    0.0000000000          0.4291
C69        C    1.0000000000    0.5000000000   -0.0853673390          0.4196
Zn70      Zn    0.9732851791    0.4732851791    0.5267148209          1.4972
Zn71      Zn    1.0267148209    0.4732851791    0.4732851791          1.4936
Zn72      Zn    0.9732851791    0.5267148209    0.4732851791          1.4911
Zn73      Zn    1.0267148209    0.5267148209    0.5267148209          1.4948
O74        O    1.0000000000    0.5000000000    0.5000000000         -2.1931
O75        O    0.9803665604    0.4286000424    0.5196334396         -1.0994
O76        O    1.0196334396    0.4803665604    0.4286000424         -1.0976
O77        O    0.9286000424    0.5196334396    0.4803665604         -1.0928
O78        O    1.0196334396    0.4286000424    0.4803665604         -1.0996
O79        O    0.9286000424    0.4803665604    0.5196334396         -1.0956
O80        O    0.9803665604    0.5196334396    0.4286000424         -1.1014
O81        O    1.0196334396    0.5713999576    0.5196334396         -1.0953
O82        O    1.0713999576    0.4803665604    0.4803665604         -1.1029
O83        O    0.9803665604    0.5713999576    0.4803665604         -1.0968
O84        O    1.0713999576    0.5196334396    0.5196334396         -1.1014
O85        O    1.0196334396    0.5196334396    0.5713999576         -1.1005
O86        O    0.9803665604    0.4803665604    0.5713999576         -1.0984
C87        C    1.0000000000    0.4146326610    0.5000000000          0.4195
C88        C    1.0000000000    0.5000000000    0.4146326610          0.4244
C89        C    0.9146326610    0.5000000000    0.5000000000           0.414
C90        C    1.0000000000    0.5853673390    0.5000000000          0.4177
C91        C    1.0853673390    0.5000000000    0.5000000000          0.4291
C92        C    1.0000000000    0.5000000000    0.5853673390          0.4196
Zn93      Zn    0.4732851791    0.9732851791   -0.0267148209          1.4972
Zn94      Zn    0.4732851791    1.0267148209    0.0267148209          1.4936
Zn95      Zn    0.5267148209    0.9732851791    0.0267148209          1.4911
Zn96      Zn    0.5267148209    1.0267148209   -0.0267148209          1.4948
O97        O    0.5000000000    1.0000000000    0.0000000000         -2.1931
O98        O    0.4286000424    0.9803665604   -0.0196334396         -1.0994
O99        O    0.4803665604    1.0196334396    0.0713999576         -1.0976
O100       O    0.5196334396    0.9286000424    0.0196334396         -1.0928
O101       O    0.4286000424    1.0196334396    0.0196334396         -1.0996
O102       O    0.4803665604    0.9286000424   -0.0196334396         -1.0956
O103       O    0.5196334396    0.9803665604    0.0713999576         -1.1014
O104       O    0.5713999576    1.0196334396   -0.0196334396         -1.0953
O105       O    0.4803665604    1.0713999576    0.0196334396         -1.1029
O106       O    0.5713999576    0.9803665604    0.0196334396         -1.0968
O107       O    0.5196334396    1.0713999576   -0.0196334396         -1.1014
O108       O    0.5196334396    1.0196334396   -0.0713999576         -1.1005
O109       O    0.4803665604    0.9803665604   -0.0713999576         -1.0984
C110       C    0.4146326610    1.0000000000    0.0000000000          0.4195
C111       C    0.5000000000    1.0000000000    0.0853673390          0.4244
C112       C    0.5000000000    0.9146326610    0.0000000000           0.414
C113       C    0.5853673390    1.0000000000    0.0000000000          0.4177
C114       C    0.5000000000    1.0853673390    0.0000000000          0.4291
C115       C    0.5000000000    1.0000000000   -0.0853673390          0.4196
Zn116     Zn    0.4732851791    0.9732851791    0.5267148209          1.4972
Zn117     Zn    0.4732851791    1.0267148209    0.4732851791          1.4936
Zn118     Zn    0.5267148209    1.0267148209    0.5267148209          1.4911
Zn119     Zn    0.5267148209    0.9732851791    0.4732851791          1.4948
O120       O    0.5000000000    1.0000000000    0.5000000000         -2.1843
O121       O    0.4286000424    0.9803665604    0.5196334396         -1.0994
O122       O    0.4803665604    1.0713999576    0.4803665604         -1.0976
O123       O    0.5196334396    1.0196334396    0.5713999576         -1.0928
O124       O    0.4286000424    1.0196334396    0.4803665604         -1.0996
O125       O    0.4803665604    0.9803665604    0.5713999576         -1.0956
O126       O    0.5196334396    1.0713999576    0.5196334396         -1.1014
O127       O    0.5713999576    0.9803665604    0.4803665604         -1.0953
O128       O    0.4803665604    1.0196334396    0.4286000424         -1.1029
O129       O    0.5713999576    1.0196334396    0.5196334396         -1.0968
O130       O    0.5196334396    0.9803665604    0.4286000424         -1.1014
O131       O    0.5196334396    0.9286000424    0.4803665604         -1.1005
O132       O    0.4803665604    0.9286000424    0.5196334396         -1.0984
C133       C    0.4146326610    1.0000000000    0.5000000000          0.4195
C134       C    0.5000000000    1.0853673390    0.5000000000          0.4244
C135       C    0.5000000000    1.0000000000    0.5853673390           0.414
C136       C    0.5853673390    1.0000000000    0.5000000000          0.4177
C137       C    0.5000000000    1.0000000000    0.4146326610          0.4291
C138       C    0.5000000000    0.9146326610    0.5000000000          0.4196
Zn139     Zn    0.4732851791    0.5267148209   -0.0267148209          1.4972
Zn140     Zn    0.4732851791    0.4732851791    0.0267148209          1.4936
Zn141     Zn    0.5267148209    0.4732851791   -0.0267148209          1.4911
Zn142     Zn    0.5267148209    0.5267148209    0.0267148209          1.4948
O143       O    0.5000000000    0.5000000000    0.0000000000         -2.1931
O144       O    0.4286000424    0.5196334396   -0.0196334396         -1.0994
O145       O    0.4803665604    0.4286000424    0.0196334396         -1.0976
O146       O    0.5196334396    0.4803665604   -0.0713999576         -1.0928
O147       O    0.4286000424    0.4803665604    0.0196334396         -1.0996
O148       O    0.4803665604    0.5196334396   -0.0713999576         -1.0956
O149       O    0.5196334396    0.4286000424   -0.0196334396         -1.1014
O150       O    0.5713999576    0.5196334396    0.0196334396         -1.0953
O151       O    0.4803665604    0.4803665604    0.0713999576         -1.1029
O152       O    0.5713999576    0.4803665604   -0.0196334396         -1.0968
O153       O    0.5196334396    0.5196334396    0.0713999576         -1.1014
O154       O    0.5196334396    0.5713999576    0.0196334396         -1.1005
O155       O    0.4803665604    0.5713999576   -0.0196334396         -1.0984
C156       C    0.4146326610    0.5000000000    0.0000000000          0.4195
C157       C    0.5000000000    0.4146326610    0.0000000000          0.4244
C158       C    0.5000000000    0.5000000000   -0.0853673390           0.414
C159       C    0.5853673390    0.5000000000    0.0000000000          0.4177
C160       C    0.5000000000    0.5000000000    0.0853673390          0.4291
C161       C    0.5000000000    0.5853673390    0.0000000000          0.4196
Zn162     Zn    0.4732851791    0.4732851791    0.5267148209          1.4972
Zn163     Zn    0.4732851791    0.5267148209    0.4732851791          1.4936
Zn164     Zn    0.5267148209    0.5267148209    0.5267148209          1.4911
Zn165     Zn    0.5267148209    0.4732851791    0.4732851791          1.4948
O166       O    0.5000000000    0.5000000000    0.5000000000         -2.1931
O167       O    0.4286000424    0.4803665604    0.5196334396         -1.0994
O168       O    0.4803665604    0.5713999576    0.4803665604         -1.0976
O169       O    0.5196334396    0.5196334396    0.5713999576         -1.0928
O170       O    0.4286000424    0.5196334396    0.4803665604         -1.0996
O171       O    0.4803665604    0.4803665604    0.5713999576         -1.0956
O172       O    0.5196334396    0.5713999576    0.5196334396         -1.1014
O173       O    0.5713999576    0.4803665604    0.4803665604         -1.0953
O174       O    0.4803665604    0.5196334396    0.4286000424         -1.1029
O175       O    0.5713999576    0.5196334396    0.5196334396         -1.0968
O176       O    0.5196334396    0.4803665604    0.4286000424         -1.1014
O177       O    0.5196334396    0.4286000424    0.4803665604         -1.1005
O178       O    0.4803665604    0.4286000424    0.5196334396         -1.0984
C179       C    0.4146326610    0.5000000000    0.5000000000          0.4195
C180       C    0.5000000000    0.5853673390    0.5000000000          0.4244
C181       C    0.5000000000    0.5000000000    0.5853673390           0.414
C182       C    0.5853673390    0.5000000000    0.5000000000          0.4177
C183       C    0.5000000000    0.5000000000    0.4146326610          0.4291
C184       C    0.5000000000    0.4146326610    0.5000000000          0.4196
C944       C    0.5000000000    0.5000000000   -0.3779390967          0.6438
C945       C    0.4950481903    0.5276131008   -0.3629312923         -0.3532
C946       C    0.4920132159    0.5303196408   -0.3313138255          -0.352
C947       C    0.4942640527    0.5043372199   -0.3117637509         -0.3542
C948       C    0.4992765059    0.4765652976   -0.3274278534          0.6427
C949       C    0.5020247157    0.4741983866   -0.3591979657          0.6417
C950       C    0.4915586260    0.5046763146   -0.2789206192         -0.3533
N951       N    0.4850569063    0.5603613577   -0.3228008760          -0.347
H952       H    0.4925992814    0.5493684188   -0.3769393883         -0.3509
Br953     Br    0.5096067539    0.4324725369   -0.3747619542          0.6367
H954       H    0.5021694117    0.4542516244   -0.3148835790          0.6401
H955       H    0.4630697213    0.5653128103   -0.3138909093         -0.3286
H956       H    0.5009411955    0.5727243963   -0.3092588879          0.6386
C957       C    0.4922239852    0.5316111407   -0.2613814277          0.6448
C958       C    0.4883652394    0.5323027318   -0.2299753866         -0.3532
C959       C    0.4841460118    0.5060137963   -0.2126260791         -0.3498
C960       C    0.4840997730    0.4786115868   -0.2289536184         -0.3485
C961       C    0.4877910702    0.4780287443   -0.2608614521         -0.3503
C962       C    0.4785611227    0.5098071186   -0.1762955910         -0.3466
H963       H    0.4886656002    0.5556469674   -0.2187717368         -0.3544
H964       H    0.4967720422    0.5549066510   -0.2709043442          0.6409
H965       H    0.4863583831    0.4544674685   -0.2712757813         -0.3481
H966       H    0.4804565454    0.4562149458   -0.2164390542         -0.3454
C967       C    0.4867321341    0.4827609873   -0.1523905479         -0.3541
C968       C    0.5000000000    0.5000000000   -0.1220609033          0.6329
N969       N    0.4990871563    0.5342487479   -0.1296844698          0.6333
N970       N    0.4969707768    0.5371824930   -0.1640801898          0.6365
H971       H    0.5199747240    0.5370839902   -0.1717597925          0.6171
H972       H    0.4789699810    0.5448145393   -0.1212107083           -0.35
H973       H    0.5050565889    0.4670671689   -0.1622016821          0.6309
H974       H    0.5248938084    0.4929210758   -0.1192358075          0.6115
H975       H    0.4656711139    0.4683845556   -0.1471495368         -0.3359
H976       H    0.4533028090    0.5151981539   -0.1728428566         -0.3251
C911       C    0.5000000000    0.5000000000    0.3779390967          0.6438
C912       C    0.5277404151    0.4958199128    0.3629312923         -0.3532
C913       C    0.5305305121    0.4928615709    0.3313138255          -0.352
C914       C    0.5044954409    0.4943871951    0.3117637509         -0.3542
C915       C    0.4765945754    0.4986234746    0.3274278534          0.6427
C916       C    0.4741519699    0.5013046315    0.3591979657          0.6417
C917       C    0.5049098256    0.4916922731    0.2789206192         -0.3533
N918       N    0.5607544807    0.4867454678    0.3228008760          -0.347
H919       H    0.5495555481    0.4939784503    0.3769393883         -0.3509
Br920     Br    0.4322309656    0.5077204898    0.3747619542          0.6367
H921       H    0.4542089264    0.5008931955    0.3148835790          0.6401
H922       H    0.5663169675    0.4649048651    0.3138909093         -0.3286
H923       H    0.5726698921    0.5029682401    0.3092588879          0.6386
C924       C    0.5318156342    0.4931082627    0.2613814277          0.6448
C925       C    0.5326145306    0.4892702969    0.2299753866         -0.3532
C926       C    0.5064534364    0.4843198263    0.2126260791         -0.3498
C927       C    0.4790631662    0.4835096868    0.2289536184         -0.3485
C928       C    0.4783776443    0.4871833009    0.2608614521         -0.3503
C929       C    0.5104009798    0.4788428581    0.1762955910         -0.3466
H930       H    0.5559413196    0.4902213314    0.2187717368         -0.3544
H931       H    0.5549752996    0.4983039842    0.2709043442          0.6409
H932       H    0.4548654664    0.4850943294    0.2712757813         -0.3481
H933       H    0.4567767959    0.4792435018    0.2164390542         -0.3454
C934       C    0.4831375690    0.4862567018    0.1523905479         -0.3541
C935       C    0.5000000000    0.5000000000    0.1220609033          0.6329
N936       N    0.5342608848    0.5000422975    0.1296844698          0.6333
N937       N    0.5372524901    0.4980085276    0.1640801898          0.6365
H938       H    0.5365127217    0.5210007878    0.1717597925          0.6171
H939       H    0.5453833961    0.4802274942    0.1212107083           -0.35
H940       H    0.4669390012    0.5041365222    0.1622016821          0.6309
H941       H    0.4922298377    0.5246867868    0.1192358075          0.6115
H942       H    0.4693538640    0.4648030812    0.1471495368         -0.3359
H943       H    0.5164940710    0.4537446527    0.1728428566         -0.3251
C878       C    0.5000000000    0.8779390967    0.5000000000          0.6438
C879       C    0.4739187102    0.8629312923    0.4896670392         -0.3532
C880       C    0.4718682667    0.8313138255    0.4861553288          -0.352
C881       C    0.4968872964    0.8117637509    0.4935174354         -0.3542
C882       C    0.5231122149    0.8274278534    0.5039413506          0.6427
C883       C    0.5248866902    0.8591979657    0.5071046024          0.6417
C884       C    0.4970918189    0.7789206192    0.4907985221         -0.3533
N885       N    0.4438044394    0.8228008760    0.4733757906          -0.347
H886       H    0.4530820225    0.8769393883    0.4829496394         -0.3509
Br887     Br    0.5642781094    0.8747619542    0.5228160611          0.6367
H888       H    0.5444080453    0.8148835790    0.5112047190          0.6401
H889       H    0.4433146656    0.8138909093    0.4508432961         -0.3286
H890       H    0.4285351436    0.8092588879    0.4864908191          0.6386
C891       C    0.4705606259    0.7613814277    0.4861056171          0.6448
C892       C    0.4706485305    0.7299753866    0.4821863710         -0.3532
C893       C    0.4972519190    0.7126260791    0.4832679129         -0.3498
C894       C    0.5241183401    0.7289536184    0.4886603745         -0.3485
C895       C    0.5239570786    0.7608614521    0.4923939217         -0.3503
C896       C    0.4946423198    0.6762955910    0.4770413351         -0.3466
H897       H    0.4477089513    0.7187717368    0.4778482547         -0.3544
H898       H    0.4468258766    0.7709043442    0.4859403898          0.6409
H899       H    0.5473340842    0.7712757813    0.4956653011         -0.3481
H900       H    0.5467925392    0.7164390542    0.4895340619         -0.3454
C901       C    0.5195290872    0.6523905479    0.4904169641         -0.3541
C902       C    0.5000000000    0.6220609033    0.5000000000          0.6329
N903       N    0.4666135251    0.6296844698    0.4923088811          0.6333
N904       N    0.4641581062    0.6640801898    0.4896524098          0.6365
H905       H    0.4596896742    0.6717597925    0.5122184109          0.6171
H906       H    0.4602499776    0.6212107083    0.4704950793           -0.35
H907       H    0.5312744307    0.6622016821    0.5114913202          0.6309
H908       H    0.5019981356    0.6192358075    0.5258034944          0.6115
H909       H    0.5377990213    0.6471495368    0.4726277014         -0.3359
H910       H    0.4943708386    0.6728428566    0.4512155345         -0.3251
C845       C    0.5000000000    1.1220609033    0.5000000000          0.6438
C846       C    0.4949565662    1.1370687077    0.4724034869         -0.3532
C847       C    0.4919126251    1.1686861745    0.4697070353          -0.352
C848       C    0.4942496885    1.1882362491    0.4956818423         -0.3542
C849       C    0.4993542926    1.1725721466    0.5234369747          0.6427
C850       C    0.5021103433    1.1408020343    0.5257947509          0.6417
C851       C    0.4915431512    1.2210793808    0.4953517292         -0.3533
N852       N    0.4848566416    1.1771991240    0.4396885728          -0.347
H853       H    0.4924354621    1.1230606117    0.4506564171         -0.3509
Br854     Br    0.5098308332    1.1252380458    0.5674952051          0.6367
H855       H    0.5023212444    1.1851164210    0.5457409231          0.6401
H856       H    0.4628531433    1.1861090907    0.4348101258         -0.3286
H857       H    0.5006998088    1.1907411121    0.4272728803          0.6386
C858       C    0.4921191066    1.2386185723    0.4684148430          0.6448
C859       C    0.4882580866    1.2700246134    0.4677360634         -0.3532
C860       C    0.4841261385    1.2873739209    0.4940388582         -0.3498
C861       C    0.4841708515    1.2710463816    0.5214410702         -0.3485
C862       C    0.4878640629    1.2391385479    0.5220116576         -0.3503
C863       C    0.4785286898    1.3237044090    0.4902640938         -0.3466
H864       H    0.4884809633    1.2812282632    0.4443909595         -0.3544
H865       H    0.4965898179    1.2290956558    0.4451043654          0.6409
H866       H    0.4865095864    1.2287242187    0.5455775590         -0.3481
H867       H    0.4806019812    1.2835609458    0.5438496802         -0.3454
C868       C    0.4867894257    1.3476094521    0.5172829555         -0.3541
C869       C    0.5000000000    1.3779390967    0.5000000000          0.6329
N870       N    0.4989734854    1.3703155302    0.4657544706          0.6333
N871       N    0.4968473801    1.3359198102    0.4628277662          0.6365
H872       H    0.5198515275    1.3282402075    0.4628499154          0.6171
H873       H    0.4788213517    1.3787892917    0.4552555088           -0.35
H874       H    0.5051658692    1.3377983179    0.5329158663          0.6309
H875       H    0.5249171672    1.3807641925    0.5069962595          0.6115
H876       H    0.4657762387    1.3528504632    0.5317292121         -0.3359
H877       H    0.4532526216    1.3271571434    0.4849569237         -0.3251
C812       C    0.5000000000    0.6220609033    0.0000000000          0.6438
C813       C    0.5274263270    0.6370687077   -0.0058991816         -0.3532
C814       C    0.5300268151    0.6686861745   -0.0090255038          -0.352
C815       C    0.5041372480    0.6882362491   -0.0058818149         -0.3542
C816       C    0.4765542806    0.6725721466    0.0000834400          0.6427
C817       C    0.4742833514    0.6408020343    0.0029114791          0.6417
C818       C    0.5043830345    0.7210793808   -0.0085973090         -0.3533
N819       N    0.5598113346    0.6771991240   -0.0170115787          -0.347
H820       H    0.5490844785    0.6230606117   -0.0090953494         -0.3509
Br821     Br    0.4328431548    0.6252380458    0.0119250216          0.6367
H822       H    0.4543533848    0.6851164210    0.0037425575          0.6401
H823       H    0.5640031648    0.6861090907   -0.0391561434         -0.3286
H824       H    0.5727137077    0.6907411121   -0.0015621730          0.6386
C825       C    0.5313248035    0.7386185723   -0.0088593063          0.6448
C826       C    0.5318831862    0.7700246134   -0.0127395674         -0.3532
C827       C    0.5054646187    0.7873739209   -0.0160515617         -0.3498
C828       C    0.4780770502    0.7710463816   -0.0151547256         -0.3485
C829       C    0.4776215890    0.7391385479   -0.0114455565         -0.3503
C830       C    0.5090634899    0.8237044090   -0.0217636896         -0.3466
H831       H    0.5552239302    0.7812282632   -0.0132427767         -0.3544
H832       H    0.5547630357    0.7290956558   -0.0051156587          0.6409
H833       H    0.4540249643    0.7287242187   -0.0120665334         -0.3481
H834       H    0.4555682946    0.7835609458   -0.0180250144         -0.3454
C835       C    0.4823145854    0.8476094521   -0.0126667255         -0.3541
C836       C    0.5000000000    0.8779390967    0.0000000000          0.6329
N837       N    0.5341970444    0.8703155302   -0.0020909741          0.6333
N838       N    0.5370562164    0.8359198102   -0.0043070647          0.6365
H839       H    0.5377494531    0.8282402075    0.0186866456          0.6171
H840       H    0.5440642441    0.8787892917   -0.0225598543           -0.35
H841       H    0.4672606999    0.8377983179    0.0061869772          0.6309
H842       H    0.4937819899    0.8807641925    0.0251226833          0.6115
H843       H    0.4672218547    0.8528504632   -0.0332205047         -0.3359
H844       H    0.5135820666    0.8271571434   -0.0471925735         -0.3251
C779       C    0.5000000000    1.3779390967    0.0000000000          0.6438
C780       C    0.4810639135    1.3629312923    0.0206985117         -0.3532
C781       C    0.4770524681    1.3313138255    0.0213653954          -0.352
C782       C    0.4928341533    1.3117637509    0.0006026673         -0.3542
C783       C    0.5119063433    1.3274278534   -0.0201977155          0.6427
C784       C    0.5154939458    1.3591979657   -0.0207306626          0.6417
C785       C    0.4903659049    1.2789206192   -0.0005558097         -0.3533
N786       N    0.4551245366    1.3228008760    0.0430462814          -0.347
H787       H    0.4673727477    1.3769393883    0.0377819244         -0.3509
Br788     Br    0.5441920980    1.3747619542   -0.0519548503          0.6367
H789       H    0.5262711088    1.3148835790   -0.0375159841          0.6401
H790       H    0.4338921021    1.3138909093    0.0354873852         -0.3286
H791       H    0.4619489236    1.3092588879    0.0619825722          0.6386
C792       C    0.4765407759    1.2613814277    0.0225697901          0.6448
C793       C    0.4729092427    1.2299753866    0.0210932455         -0.3532
C794       C    0.4833849876    1.2126260791   -0.0033846789         -0.3498
C795       C    0.4979831685    1.2289536184   -0.0265746839         -0.3485
C796       C    0.5014150543    1.2608614521   -0.0250956503         -0.3503
C797       C    0.4766373730    1.1762955910   -0.0031611224         -0.3466
H798       H    0.4606935147    1.2187717368    0.0409884595         -0.3544
H799       H    0.4679419966    1.2709043442    0.0446927786          0.6409
H800       H    0.5127894702    1.2712757813   -0.0457791939         -0.3481
H801       H    0.5068667298    1.2164390542   -0.0474544583         -0.3454
C802       C    0.4979920567    1.1523905479   -0.0216607476         -0.3541
C803       C    0.5000000000    1.1220609033    0.0000000000          0.6329
N804       N    0.4809338555    1.1296844698    0.0284656311          0.6333
N805       N    0.4775776080    1.1640801898    0.0298152698          0.6365
H806       H    0.4970773234    1.1717597925    0.0420198750          0.6171
H807       H    0.4582833147    1.1212107083    0.0266518816           -0.35
H808       H    0.5218662725    1.1622016821   -0.0251397411          0.6309
H809       H    0.5248260571    1.1192358075    0.0073129854          0.6115
H810       H    0.4878668417    1.1471495368   -0.0450643453         -0.3359
H811       H    0.4524047794    1.1728428566   -0.0120957225         -0.3251
C746       C    0.5000000000    1.0000000000   -0.1220609033          0.6438
C747       C    0.5049518097    1.0276131008   -0.1370687077         -0.3532
C748       C    0.5079867841    1.0303196408   -0.1686861745          -0.352
C749       C    0.5057359473    1.0043372199   -0.1882362491         -0.3542
C750       C    0.5007234941    0.9765652976   -0.1725721466          0.6427
C751       C    0.4979752843    0.9741983866   -0.1408020343          0.6417
C752       C    0.5084413740    1.0046763146   -0.2210793808         -0.3533
N753       N    0.5149430937    1.0603613577   -0.1771991240          -0.347
H754       H    0.5074007186    1.0493684188   -0.1230606117         -0.3509
Br755     Br    0.4903932461    0.9324725369   -0.1252380458          0.6367
H756       H    0.4978305883    0.9542516244   -0.1851164210          0.6401
H757       H    0.5369302787    1.0653128103   -0.1861090907         -0.3286
H758       H    0.4990588045    1.0727243963   -0.1907411121          0.6386
C759       C    0.5077760148    1.0316111407   -0.2386185723          0.6448
C760       C    0.5116347606    1.0323027318   -0.2700246134         -0.3532
C761       C    0.5158539882    1.0060137963   -0.2873739209         -0.3498
C762       C    0.5159002270    0.9786115868   -0.2710463816         -0.3485
C763       C    0.5122089298    0.9780287443   -0.2391385479         -0.3503
C764       C    0.5214388773    1.0098071186   -0.3237044090         -0.3466
H765       H    0.5113343998    1.0556469674   -0.2812282632         -0.3544
H766       H    0.5032279578    1.0549066510   -0.2290956558          0.6409
H767       H    0.5136416169    0.9544674685   -0.2287242187         -0.3481
H768       H    0.5195434546    0.9562149458   -0.2835609458         -0.3454
C769       C    0.5132678659    0.9827609873   -0.3476094521         -0.3541
C770       C    0.5000000000    1.0000000000   -0.3779390967          0.6329
N771       N    0.5009128437    1.0342487479   -0.3703155302          0.6333
N772       N    0.5030292232    1.0371824930   -0.3359198102          0.6365
H773       H    0.4800252760    1.0370839902   -0.3282402075          0.6171
H774       H    0.5210300190    1.0448145393   -0.3787892917           -0.35
H775       H    0.4949434111    0.9670671689   -0.3377983179          0.6309
H776       H    0.4751061916    0.9929210758   -0.3807641925          0.6115
H777       H    0.5343288861    0.9683845556   -0.3528504632         -0.3359
H778       H    0.5466971910    1.0151981539   -0.3271571434         -0.3251
C713       C    0.5000000000    1.0000000000    0.1220609033          0.6438
C714       C    0.4722595849    0.9958199128    0.1370687077         -0.3532
C715       C    0.4694694879    0.9928615709    0.1686861745          -0.352
C716       C    0.4955045591    0.9943871951    0.1882362491         -0.3542
C717       C    0.5234054246    0.9986234746    0.1725721466          0.6427
C718       C    0.5258480301    1.0013046315    0.1408020343          0.6417
C719       C    0.4950901744    0.9916922731    0.2210793808         -0.3533
N720       N    0.4392455193    0.9867454678    0.1771991240          -0.347
H721       H    0.4504444519    0.9939784503    0.1230606117         -0.3509
Br722     Br    0.5677690344    1.0077204898    0.1252380458          0.6367
H723       H    0.5457910736    1.0008931955    0.1851164210          0.6401
H724       H    0.4336830325    0.9649048651    0.1861090907         -0.3286
H725       H    0.4273301079    1.0029682401    0.1907411121          0.6386
C726       C    0.4681843658    0.9931082627    0.2386185723          0.6448
C727       C    0.4673854694    0.9892702969    0.2700246134         -0.3532
C728       C    0.4935465636    0.9843198263    0.2873739209         -0.3498
C729       C    0.5209368338    0.9835096868    0.2710463816         -0.3485
C730       C    0.5216223557    0.9871833009    0.2391385479         -0.3503
C731       C    0.4895990202    0.9788428581    0.3237044090         -0.3466
H732       H    0.4440586804    0.9902213314    0.2812282632         -0.3544
H733       H    0.4450247004    0.9983039842    0.2290956558          0.6409
H734       H    0.5451345336    0.9850943294    0.2287242187         -0.3481
H735       H    0.5432232041    0.9792435018    0.2835609458         -0.3454
C736       C    0.5168624310    0.9862567018    0.3476094521         -0.3541
C737       C    0.5000000000    1.0000000000    0.3779390967          0.6329
N738       N    0.4657391152    1.0000422975    0.3703155302          0.6333
N739       N    0.4627475099    0.9980085276    0.3359198102          0.6365
H740       H    0.4634872783    1.0210007878    0.3282402075          0.6171
H741       H    0.4546166039    0.9802274942    0.3787892917           -0.35
H742       H    0.5330609988    1.0041365222    0.3377983179          0.6309
H743       H    0.5077701623    1.0246867868    0.3807641925          0.6115
H744       H    0.5306461360    0.9648030812    0.3528504632         -0.3359
H745       H    0.4835059290    0.9537446527    0.3271571434         -0.3251
C680       C    0.8779390967    0.5000000000    0.5000000000          0.6438
C681       C    0.8629312923    0.4844786864    0.5233686238         -0.3532
C682       C    0.8313138255    0.4847988272    0.5274225033          -0.352
C683       C    0.8117637509    0.5011431333    0.5070997052         -0.3542
C684       C    0.8274278534    0.5167304909    0.4835744286          0.6427
C685       C    0.8591979657    0.5163825741    0.4799641823          0.6417
C686       C    0.7789206192    0.5028626305    0.5092157506         -0.3533
N687       N    0.8228008760    0.4690456016    0.5539315749          -0.347
H688       H    0.8769393883    0.4712009944    0.5407753441         -0.3509
Br689     Br    0.8747619542    0.5397648561    0.4445833580          0.6367
H690       H    0.8148835790    0.5300736720    0.4654573528          0.6401
H691       H    0.8138909093    0.4815015424    0.5727146184         -0.3286
H692       H    0.8092588879    0.4490224689    0.5518749939          0.6386
C693       C    0.7613814277    0.4837533680    0.5282095298          0.6448
C694       C    0.7299753866    0.4860620678    0.5313778295         -0.3532
C695       C    0.7126260791    0.5072914367    0.5153084827         -0.3498
C696       C    0.7289536184    0.5262767854    0.4955489341         -0.3485
C697       C    0.7608614521    0.5240138142    0.4925749903         -0.3503
C698       C    0.6762955910    0.5087016378    0.5219108771         -0.3466
H699       H    0.7187717368    0.4696997581    0.5480307083         -0.3544
H700       H    0.7709043442    0.4643568153    0.5418894190          0.6409
H701       H    0.7712757813    0.5413440679    0.4765484929         -0.3481
H702       H    0.7164390542    0.5443981384    0.4818924632         -0.3454
C703       C    0.6523905479    0.5215057216    0.4967252843         -0.3541
C704       C    0.6220609033    0.5000000000    0.5000000000          0.6329
N705       N    0.6296844698    0.4769721466    0.5253678534          0.6333
N706       N    0.6640801898    0.4764716828    0.5289505141          0.6365
H707       H    0.6717597925    0.4599249714    0.5129693492          0.6171
H708       H    0.6212107083    0.4841944572    0.5469125724           -0.35
H709       H    0.6622016821    0.5191248747    0.4727166786          0.6309
H710       H    0.6192358075    0.4869161252    0.4776700854          0.6115
H711       H    0.6471495368    0.5466603071    0.5009080089         -0.3359
H712       H    0.6728428566    0.5232161602    0.5432737962         -0.3251
C647       C    1.1220609033    0.5000000000    0.5000000000          0.6438
C648       C    1.1370687077    0.4766313762    0.5155213136         -0.3532
C649       C    1.1686861745    0.4725774967    0.5152011728          -0.352
C650       C    1.1882362491    0.4929002948    0.4988568667         -0.3542
C651       C    1.1725721466    0.5164255714    0.4832695091          0.6427
C652       C    1.1408020343    0.5200358177    0.4836174259          0.6417
C653       C    1.2210793808    0.4907842494    0.4971373695         -0.3533
N654       N    1.1771991240    0.4460684251    0.5309543984          -0.347
H655       H    1.1230606117    0.4592246559    0.5287990056         -0.3509
Br656     Br    1.1252380458    0.5554166420    0.4602351439          0.6367
H657       H    1.1851164210    0.5345426472    0.4699263280          0.6401
H658       H    1.1861090907    0.4272853816    0.5184984576         -0.3286
H659       H    1.1907411121    0.4481250061    0.5509775311          0.6386
C660       C    1.2386185723    0.4717904702    0.5162466320          0.6448
C661       C    1.2700246134    0.4686221705    0.5139379322         -0.3532
C662       C    1.2873739209    0.4846915173    0.4927085633         -0.3498
C663       C    1.2710463816    0.5044510659    0.4737232146         -0.3485
C664       C    1.2391385479    0.5074250097    0.4759861858         -0.3503
C665       C    1.3237044090    0.4780891229    0.4912983622         -0.3466
H666       H    1.2812282632    0.4519692917    0.5303002419         -0.3544
H667       H    1.2290956558    0.4581105810    0.5356431847          0.6409
H668       H    1.2287242187    0.5234515071    0.4586559321         -0.3481
H669       H    1.2835609458    0.5181075368    0.4556018616         -0.3454
C670       C    1.3476094521    0.5032747157    0.4784942784         -0.3541
C671       C    1.3779390967    0.5000000000    0.5000000000          0.6329
N672       N    1.3703155302    0.4746321466    0.5230278534          0.6333
N673       N    1.3359198102    0.4710494859    0.5235283172          0.6365
H674       H    1.3282402075    0.4870306508    0.5400750286          0.6171
H675       H    1.3787892917    0.4530874276    0.5158055428           -0.35
H676       H    1.3377983179    0.5272833214    0.4808751253          0.6309
H677       H    1.3807641925    0.5223299146    0.5130838748          0.6115
H678       H    1.3528504632    0.4990919911    0.4533396929         -0.3359
H679       H    1.3271571434    0.4567262038    0.4767838398         -0.3251
C614       C    0.6220609033    0.5000000000    0.0000000000          0.6438
C615       C    0.6370687077    0.4847455227   -0.0235436760         -0.3532
C616       C    0.6686861745    0.4851117581   -0.0275936513          -0.352
C617       C    0.6882362491    0.5012238227   -0.0070862420         -0.3542
C618       C    0.6725721466    0.5165425577    0.0166148279          0.6427
C619       C    0.6408020343    0.5161535947    0.0202208828          0.6417
C620       C    0.7210793808    0.5029672800   -0.0091825902         -0.3533
N621       N    0.6771991240    0.4696611083   -0.0542802101          -0.347
H622       H    0.6230606117    0.4716667017   -0.0411003116         -0.3509
Br623     Br    0.6252380458    0.5391318857    0.0558654053          0.6367
H624       H    0.6851164210    0.5296787829    0.0348825181          0.6401
H625       H    0.6861090907    0.4823299115   -0.0729203445         -0.3286
H626       H    0.6907411121    0.4496158764   -0.0524515372          0.6386
C627       C    0.7386185723    0.4840753195   -0.0283925196          0.6448
C628       C    0.7700246134    0.4864199111   -0.0315343515         -0.3532
C629       C    0.7873739209    0.5074651080   -0.0152245477         -0.3498
C630       C    0.7710463816    0.5262244516    0.0047496920         -0.3485
C631       C    0.7391385479    0.5239277965    0.0076977008         -0.3503
C632       C    0.8237044090    0.5089503240   -0.0218104730         -0.3466
H633       H    0.7812282632    0.4702480966   -0.0483722838         -0.3544
H634       H    0.7290956558    0.4648356387   -0.0422921711          0.6409
H635       H    0.7287242187    0.5410746179    0.0239203031         -0.3481
H636       H    0.7835609458    0.5441892816    0.0186114205         -0.3454
C637       C    0.8476094521    0.5214670783    0.0035191442         -0.3541
C638       C    0.8779390967    0.5000000000    0.0000000000          0.6329
N639       N    0.8703155302    0.4772622110   -0.0256281675          0.6333
N640       N    0.8359198102    0.4768025346   -0.0292162895          0.6365
H641       H    0.8282402075    0.4600750986   -0.0134243874          0.6171
H642       H    0.8787892917    0.4847291384   -0.0470893344           -0.35
H643       H    0.8377983179    0.5188132732    0.0274991129          0.6309
H644       H    0.8807641925    0.4866629557    0.0221796329          0.6115
H645       H    0.8528504632    0.5466676172   -0.0003771613         -0.3359
H646       H    0.8271571434    0.5237069233   -0.0430068985         -0.3251
C581       C    1.1220609033    0.5000000000    0.0000000000          0.6438
C582       C    1.1370687077    0.4787332588    0.0182956136         -0.3532
C583       C    1.1686861745    0.4746709375    0.0184799332          -0.352
C584       C    1.1882362491    0.4928133836   -0.0002551705         -0.3542
C585       C    1.1725721466    0.5142273935   -0.0186357183          0.6427
C586       C    1.1408020343    0.5178529358   -0.0187375401          0.6417
C587       C    1.2210793808    0.4905006974   -0.0016994011         -0.3533
N588       N    1.1771991240    0.4503166375    0.0373945590          -0.347
H589       H    1.1230606117    0.4631047042    0.0336266048         -0.3509
Br590     Br    1.1252380458    0.5500659908   -0.0463211028          0.6367
H591       H    1.1851164210    0.5305527267   -0.0341196587          0.6401
H592       H    1.1861090907    0.4301357282    0.0273604129         -0.3286
H593       H    1.1907411121    0.4548368764    0.0570089110          0.6386
C594       C    1.2386185723    0.4740194288    0.0196148042          0.6448
C595       C    1.2700246134    0.4705896257    0.0177162079         -0.3532
C596       C    1.2873739209    0.4839064353   -0.0053396502         -0.3498
C597       C    1.2710463816    0.5011629238   -0.0266257215         -0.3485
C598       C    1.2391385479    0.5043942043   -0.0247484345         -0.3503
C599       C    1.3237044090    0.4771802307   -0.0059214156         -0.3466
H600       H    1.2812282632    0.4560910820    0.0360147264         -0.3544
H601       H    1.2290956558    0.4628467262    0.0405560635          0.6409
H602       H    1.2287242187    0.5181513260   -0.0439298816         -0.3481
H603       H    1.2835609458    0.5124702977   -0.0462986961         -0.3454
C604       C    1.3476094521    0.5005864338   -0.0217457104         -0.3541
C605       C    1.3779390967    0.5000000000    0.0000000000          0.6329
N606       N    1.3703155302    0.4776789599    0.0259919447          0.6333
N607       N    1.3359198102    0.4741858468    0.0269322014          0.6365
H608       H    1.3282402075    0.4920930074    0.0413725924          0.6171
H609       H    1.3787892917    0.4554057172    0.0214931286           -0.35
H610       H    1.3377983179    0.5247050755   -0.0223562005          0.6309
H611       H    1.3807641925    0.5237782389    0.0102180341          0.6115
H612       H    1.3528504632    0.4933209819   -0.0461887374         -0.3359
H613       H    1.3271571434    0.4541843859   -0.0176788302         -0.3251
C548       C    1.0000000000    0.5000000000   -0.3779390967          0.6438
C549       C    1.0277404151    0.5041800872   -0.3629312923         -0.3532
C550       C    1.0305305121    0.5071384291   -0.3313138255          -0.352
C551       C    1.0044954409    0.5056128049   -0.3117637509         -0.3542
C552       C    0.9765945754    0.5013765254   -0.3274278534          0.6427
C553       C    0.9741519699    0.4986953685   -0.3591979657          0.6417
C554       C    1.0049098256    0.5083077269   -0.2789206192         -0.3533
N555       N    1.0607544807    0.5132545322   -0.3228008760          -0.347
H556       H    1.0495555481    0.5060215497   -0.3769393883         -0.3509
Br557     Br    0.9322309656    0.4922795102   -0.3747619542          0.6367
H558       H    0.9542089264    0.4991068045   -0.3148835790          0.6401
H559       H    1.0663169675    0.5350951349   -0.3138909093         -0.3286
H560       H    1.0726698921    0.4970317599   -0.3092588879          0.6386
C561       C    1.0318156342    0.5068917373   -0.2613814277          0.6448
C562       C    1.0326145306    0.5107297031   -0.2299753866         -0.3532
C563       C    1.0064534364    0.5156801737   -0.2126260791         -0.3498
C564       C    0.9790631662    0.5164903132   -0.2289536184         -0.3485
C565       C    0.9783776443    0.5128166991   -0.2608614521         -0.3503
C566       C    1.0104009798    0.5211571419   -0.1762955910         -0.3466
H567       H    1.0559413196    0.5097786686   -0.2187717368         -0.3544
H568       H    1.0549752996    0.5016960158   -0.2709043442          0.6409
H569       H    0.9548654664    0.5149056706   -0.2712757813         -0.3481
H570       H    0.9567767959    0.5207564982   -0.2164390542         -0.3454
C571       C    0.9831375690    0.5137432982   -0.1523905479         -0.3541
C572       C    1.0000000000    0.5000000000   -0.1220609033          0.6329
N573       N    1.0342608848    0.4999577025   -0.1296844698          0.6333
N574       N    1.0372524901    0.5019914724   -0.1640801898          0.6365
H575       H    1.0365127217    0.4789992122   -0.1717597925          0.6171
H576       H    1.0453833961    0.5197725058   -0.1212107083           -0.35
H577       H    0.9669390012    0.4958634778   -0.1622016821          0.6309
H578       H    0.9922298377    0.4753132132   -0.1192358075          0.6115
H579       H    0.9693538640    0.5351969188   -0.1471495368         -0.3359
H580       H    1.0164940710    0.5462553473   -0.1728428566         -0.3251
C515       C    1.0000000000    0.5000000000    0.1220609033          0.6438
C516       C    0.9722595849    0.4958199128    0.1370687077         -0.3532
C517       C    0.9694694879    0.4928615709    0.1686861745          -0.352
C518       C    0.9955045591    0.4943871951    0.1882362491         -0.3542
C519       C    1.0234054246    0.4986234746    0.1725721466          0.6427
C520       C    1.0258480301    0.5013046315    0.1408020343          0.6417
C521       C    0.9950901744    0.4916922731    0.2210793808         -0.3533
N522       N    0.9392455193    0.4867454678    0.1771991240          -0.347
H523       H    0.9504444519    0.4939784503    0.1230606117         -0.3509
Br524     Br    1.0677690344    0.5077204898    0.1252380458          0.6367
H525       H    1.0457910736    0.5008931955    0.1851164210          0.6401
H526       H    0.9336830325    0.4649048651    0.1861090907         -0.3286
H527       H    0.9273301079    0.5029682401    0.1907411121          0.6386
C528       C    0.9681843658    0.4931082627    0.2386185723          0.6448
C529       C    0.9673854694    0.4892702969    0.2700246134         -0.3532
C530       C    0.9935465636    0.4843198263    0.2873739209         -0.3498
C531       C    1.0209368338    0.4835096868    0.2710463816         -0.3485
C532       C    1.0216223557    0.4871833009    0.2391385479         -0.3503
C533       C    0.9895990202    0.4788428581    0.3237044090         -0.3466
H534       H    0.9440586804    0.4902213314    0.2812282632         -0.3544
H535       H    0.9450247004    0.4983039842    0.2290956558          0.6409
H536       H    1.0451345336    0.4850943294    0.2287242187         -0.3481
H537       H    1.0432232041    0.4792435018    0.2835609458         -0.3454
C538       C    1.0168624310    0.4862567018    0.3476094521         -0.3541
C539       C    1.0000000000    0.5000000000    0.3779390967          0.6329
N540       N    0.9657391152    0.5000422975    0.3703155302          0.6333
N541       N    0.9627475099    0.4980085276    0.3359198102          0.6365
H542       H    0.9634872783    0.5210007878    0.3282402075          0.6171
H543       H    0.9546166039    0.4802274942    0.3787892917           -0.35
H544       H    1.0330609988    0.5041365222    0.3377983179          0.6309
H545       H    1.0077701623    0.5246867868    0.3807641925          0.6115
H546       H    1.0306461360    0.4648030812    0.3528504632         -0.3359
H547       H    0.9835059290    0.4537446527    0.3271571434         -0.3251
C482       C    1.0000000000   -0.1220609033    0.5000000000          0.6438
C483       C    1.0277404151   -0.1370687077    0.5041800872         -0.3532
C484       C    1.0305305121   -0.1686861745    0.5071384291          -0.352
C485       C    1.0044954409   -0.1882362491    0.5056128049         -0.3542
C486       C    0.9765945754   -0.1725721466    0.5013765254          0.6427
C487       C    0.9741519699   -0.1408020343    0.4986953685          0.6417
C488       C    1.0049098256   -0.2210793808    0.5083077269         -0.3533
N489       N    1.0607544807   -0.1771991240    0.5132545322          -0.347
H490       H    1.0495555481   -0.1230606117    0.5060215497         -0.3509
Br491     Br    0.9322309656   -0.1252380458    0.4922795102          0.6367
H492       H    0.9542089264   -0.1851164210    0.4991068045          0.6401
H493       H    1.0663169675   -0.1861090907    0.5350951349         -0.3286
H494       H    1.0726698921   -0.1907411121    0.4970317599          0.6386
C495       C    1.0318156342   -0.2386185723    0.5068917373          0.6448
C496       C    1.0326145306   -0.2700246134    0.5107297031         -0.3532
C497       C    1.0064534364   -0.2873739209    0.5156801737         -0.3498
C498       C    0.9790631662   -0.2710463816    0.5164903132         -0.3485
C499       C    0.9783776443   -0.2391385479    0.5128166991         -0.3503
C500       C    1.0104009798   -0.3237044090    0.5211571419         -0.3466
H501       H    1.0559413196   -0.2812282632    0.5097786686         -0.3544
H502       H    1.0549752996   -0.2290956558    0.5016960158          0.6409
H503       H    0.9548654664   -0.2287242187    0.5149056706         -0.3481
H504       H    0.9567767959   -0.2835609458    0.5207564982         -0.3454
C505       C    0.9831375690   -0.3476094521    0.5137432982         -0.3541
C506       C    1.0000000000   -0.3779390967    0.5000000000          0.6329
N507       N    1.0342608848   -0.3703155302    0.4999577025          0.6333
N508       N    1.0372524901   -0.3359198102    0.5019914724          0.6365
H509       H    1.0365127217   -0.3282402075    0.4789992122          0.6171
H510       H    1.0453833961   -0.3787892917    0.5197725058           -0.35
H511       H    0.9669390012   -0.3377983179    0.4958634778          0.6309
H512       H    0.9922298377   -0.3807641925    0.4753132132          0.6115
H513       H    0.9693538640   -0.3528504632    0.5351969188         -0.3359
H514       H    1.0164940710   -0.3271571434    0.5462553473         -0.3251
C449       C    1.0000000000    0.1220609033    0.5000000000          0.6438
C450       C    1.0105344917    0.1370687077    0.4739994569         -0.3532
C451       C    1.0094101179    0.1686861745    0.4700914891          -0.352
C452       C    0.9974601503    0.1882362491    0.4932723161         -0.3542
C453       C    0.9868922763    0.1725721466    0.5194395551          0.6427
C454       C    0.9879551467    0.1408020343    0.5229072965          0.6417
C455       C    0.9953522179    0.2210793808    0.4915428826         -0.3533
N456       N    1.0195438061    0.1771991240    0.4409675581          -0.347
H457       H    1.0200629526    0.1230606117    0.4542890676         -0.3509
Br458     Br    0.9721206956    0.1252380458    0.5622494368          0.6367
H459       H    0.9774417070    0.1851164210    0.5398590471          0.6401
H460       H    1.0035832219    0.1861090907    0.4250548922         -0.3286
H461       H    1.0395737436    0.1907411121    0.4389783441          0.6386
C462       C    1.0102770679    0.2386185723    0.4691112885          0.6448
C463       C    1.0073814039    0.2700246134    0.4664686861         -0.3532
C464       C    0.9897944426    0.2873739209    0.4864589037         -0.3498
C465       C    0.9751441429    0.2710463816    0.5096160180         -0.3485
C466       C    0.9779561345    0.2391385479    0.5120773355         -0.3503
C467       C    0.9870923727    0.3237044090    0.4802718934         -0.3466
H468       H    1.0200829265    0.2812282632    0.4468800446         -0.3544
H469       H    1.0265460832    0.2290956558    0.4518287896          0.6409
H470       H    0.9641809559    0.2287242187    0.5312458193         -0.3481
H471       H    0.9601198846    0.2835609458    0.5266205556         -0.3454
C472       C    0.9795835818    0.3476094521    0.5075093071         -0.3541
C473       C    1.0000000000    0.3779390967    0.5000000000          0.6329
N474       N    1.0174895888    0.3703155302    0.4705394450          0.6333
N475       N    1.0172634781    0.3359198102    0.4669290716          0.6365
H476       H    1.0366718749    0.3282402075    0.4792783802          0.6171
H477       H    1.0061046307    0.3787892917    0.4508742622           -0.35
H478       H    0.9867176064    0.3377983179    0.5305568074          0.6309
H479       H    1.0172851416    0.3807641925    0.5192623142          0.6115
H480       H    0.9541006593    0.3528504632    0.5084415205         -0.3359
H481       H    0.9685988640    0.3271571434    0.4622431438         -0.3251
C416       C    0.8779390967   -0.0000000000    0.5000000000          0.6438
C417       C    0.8629312923   -0.0276465899    0.4952387163         -0.3532
C418       C    0.8313138255   -0.0312258513    0.4971688244          -0.352
C419       C    0.8117637509   -0.0060332519    0.5039131111         -0.3542
C420       C    0.8274278534    0.0217833197    0.5086715456          0.6427
C421       C    0.8591979657    0.0249455202    0.5068951975          0.6417
C422       C    0.7789206192   -0.0072745932    0.5063407419         -0.3533
N423       N    0.8228008760   -0.0618390372    0.4934637146          -0.347
H424       H    0.8769393883   -0.0489330010    0.4901221046         -0.3509
Br425     Br    0.8747619542    0.0667558757    0.5139964655          0.6367
H426       H    0.8148835790    0.0437460249    0.5135611770          0.6401
H427       H    0.8138909093   -0.0739915046    0.5124445134         -0.3286
H428       H    0.8092588879   -0.0680443736    0.4743156294          0.6386
C429       C    0.7613814277   -0.0323680652    0.4965302769          0.6448
C430       C    0.7299753866   -0.0343340652    0.4999218932         -0.3532
C431       C    0.7126260791   -0.0110596665    0.5128529555         -0.3498
C432       C    0.7289536184    0.0146842991    0.5222407913         -0.3485
C433       C    0.7608614521    0.0164909676    0.5189695026         -0.3503
C434       C    0.6762955910   -0.0165301097    0.5168095362         -0.3466
H435       H    0.7187717368   -0.0561766324    0.4916789684         -0.3544
H436       H    0.7709043442   -0.0527163300    0.4843108765          0.6409
H437       H    0.7712757813    0.0381514336    0.5283508951         -0.3481
H438       H    0.7164390542    0.0344961263    0.5333030758         -0.3454
C439       C    0.6523905479    0.0116812676    0.5183512346         -0.3541
C440       C    0.6220609033   -0.0000000000    0.5000000000          0.6329
N441       N    0.6296844698   -0.0325071802    0.4891790364          0.6333
N442       N    0.6640801898   -0.0359867799    0.4901681309          0.6365
H443       H    0.6717597925   -0.0280496548    0.4685766202          0.6171
H444       H    0.6212107083   -0.0492997774    0.5044873794           -0.35
H445       H    0.6622016821    0.0326831885    0.5064768547          0.6309
H446       H    0.6192358075    0.0151436007    0.4790122840          0.6115
H447       H    0.6471495368    0.0180140092    0.5430523427         -0.3359
H448       H    0.6728428566   -0.0302112920    0.5387154925         -0.3251
C383       C    1.3779390967   -0.0000000000    0.5000000000          0.6438
C384       C    1.3629312923   -0.0279322777    0.4973939259         -0.3532
C385       C    1.3313138255   -0.0313513261    0.4995954109          -0.352
C386       C    1.3117637509   -0.0057121091    0.5043685669         -0.3542
C387       C    1.3274278534    0.0223894191    0.5069586372          0.6427
C388       C    1.3591979657    0.0254045661    0.5049427470          0.6417
C389       C    1.2789206192   -0.0067617306    0.5068850354         -0.3533
N390       N    1.3228008760   -0.0621595029    0.4982720681          -0.347
H391       H    1.3769393883   -0.0495509914    0.4939410677         -0.3509
Br392     Br    1.3747619542    0.0676392824    0.5087849572          0.6367
H393       H    1.3148835790    0.0446648191    0.5101328255          0.6401
H394       H    1.3138909093   -0.0728056323    0.5181369395         -0.3286
H395       H    1.3092588879   -0.0698290055    0.4796620144          0.6386
C396       C    1.2613814277   -0.0325395583    0.4990472323          0.6448
C397       C    1.2299753866   -0.0342370129    0.5025809082         -0.3532
C398       C    1.2126260791   -0.0100311414    0.5136708044         -0.3498
C399       C    1.2289536184    0.0163624988    0.5210368740         -0.3485
C400       C    1.2608614521    0.0179104182    0.5176355029         -0.3503
C401       C    1.1762955910   -0.0151787657    0.5180391271         -0.3466
H402       H    1.2187717368   -0.0566523098    0.4960541927         -0.3544
H403       H    1.2709043442   -0.0537729726    0.4884402655          0.6409
H404       H    1.2712757813    0.0402323220    0.5253113690         -0.3481
H405       H    1.2164390542    0.0369714809    0.5305317406         -0.3454
C406       C    1.1523905479    0.0130672834    0.5173915476         -0.3541
C407       C    1.1220609033   -0.0000000000    0.5000000000          0.6329
N408       N    1.1296844698   -0.0332475251    0.4917288396          0.6333
N409       N    1.1640801898   -0.0366400819    0.4929844191          0.6365
H410       H    1.1717597925   -0.0303988065    0.4708431055          0.6171
H411       H    1.1212107083   -0.0488042403    0.5082916080           -0.35
H412       H    1.1622016821    0.0330866033    0.5039264666          0.6309
H413       H    1.1192358075    0.0134728680    0.4779026088          0.6115
H414       H    1.1471495368    0.0212938267    0.5415280831         -0.3359
H415       H    1.1728428566   -0.0271224995    0.5409387537         -0.3251
C350       C   -0.0000000000   -0.1220609033   -0.0000000000          0.6438
C351       C    0.0034443589   -0.1370687077    0.0278413389         -0.3532
C352       C    0.0013466226   -0.1686861745    0.0313250052          -0.352
C353       C   -0.0041949248   -0.1882362491    0.0058408195         -0.3542
C354       C   -0.0076283738   -0.1725721466   -0.0221701745          0.6427
C355       C   -0.0057040098   -0.1408020343   -0.0252445439          0.6417
C356       C   -0.0066787119   -0.2210793808    0.0069655955         -0.3533
N357       N    0.0035952603   -0.1771991240    0.0620794947          -0.347
H358       H    0.0075453748   -0.1230606117    0.0493465169         -0.3509
Br359     Br   -0.0108137843   -0.1252380458   -0.0673447107          0.6367
H360       H   -0.0114705814   -0.1851164210   -0.0443401171          0.6401
H361       H   -0.0159406848   -0.1861090907    0.0733178235         -0.3286
H362       H    0.0224274029   -0.1907411121    0.0691862361          0.6386
C363       C    0.0019302641   -0.2386185723    0.0324962260          0.6448
C364       C   -0.0015508012   -0.2700246134    0.0342991130         -0.3532
C365       C   -0.0133631585   -0.2873739209    0.0104374654         -0.3498
C366       C   -0.0215191215   -0.2710463816   -0.0157228766         -0.3485
C367       C   -0.0181658070   -0.2391385479   -0.0173723198         -0.3503
C368       C   -0.0175748041   -0.3237044090    0.0157140477         -0.3466
H369       H    0.0056466236   -0.2812282632    0.0565081343         -0.3544
H370       H    0.0131705775   -0.2290956558    0.0534012727          0.6409
H371       H   -0.0265090567   -0.2287242187   -0.0394534542         -0.3481
H372       H   -0.0316290706   -0.2835609458   -0.0360371958         -0.3454
C373       C   -0.0177764090   -0.3476094521   -0.0125387044         -0.3541
C374       C   -0.0000000000   -0.3779390967    0.0000000000          0.6329
N375       N    0.0092666279   -0.3703155302    0.0329839298          0.6333
N376       N    0.0081135736   -0.3359198102    0.0364126887          0.6365
H377       H    0.0300573138   -0.3282402075    0.0295088091          0.6171
H378       H   -0.0068211257   -0.3787892917    0.0490313866           -0.35
H379       H   -0.0049190603   -0.3377983179   -0.0329536539          0.6309
H380       H    0.0216825031   -0.3807641925   -0.0141308855          0.6115
H381       H   -0.0421492780   -0.3528504632   -0.0200361450         -0.3359
H382       H   -0.0401051360   -0.3271571434    0.0283405998         -0.3251
C317       C    0.0000000000    0.1220609033    0.0000000000          0.6438
C318       C   -0.0278113316    0.1370687077    0.0036788031         -0.3532
C319       C   -0.0306543605    0.1686861745    0.0065863132          -0.352
C320       C   -0.0045959975    0.1882362491    0.0055307662         -0.3542
C321       C    0.0233767724    0.1725721466    0.0017986755          0.6427
C322       C    0.0258673644    0.1408020343   -0.0008379656          0.6417
C323       C   -0.0050589473    0.2210793808    0.0082177713         -0.3533
N324       N   -0.0609837786    0.1771991240    0.0121559986          -0.347
H325       H   -0.0496561432    0.1230606117    0.0051262899         -0.3509
Br326     Br    0.0678973227    0.1252380458   -0.0064962728          0.6367
H327       H    0.0457997355    0.1851164210   -0.0000667045          0.6401
H328       H   -0.0669394950    0.1861090907    0.0338926641         -0.3286
H329       H   -0.0726044935    0.1907411121   -0.0042791574          0.6386
C330       C   -0.0319348215    0.2386185723    0.0063164702          0.6448
C331       C   -0.0328028478    0.2700246134    0.0101393942         -0.3532
C332       C   -0.0067353499    0.2873739209    0.0155611616         -0.3498
C333       C    0.0206358402    0.2710463816    0.0168654539         -0.3485
C334       C    0.0213875445    0.2391385479    0.0132048090         -0.3503
C335       C   -0.0107810878    0.3237044090    0.0209660005         -0.3466
H336       H   -0.0561086758    0.2812282632    0.0087675594         -0.3544
H337       H   -0.0549969536    0.2290956558    0.0007036556          0.6409
H338       H    0.0448581961    0.2287242187    0.0157177410         -0.3481
H339       H    0.0428415938    0.2835609458    0.0215331240         -0.3454
C340       C    0.0166116736    0.3476094521    0.0140453596         -0.3541
C341       C   -0.0000000000    0.3779390967    0.0000000000          0.6329
N342       N   -0.0342545424    0.3703155302   -0.0006605624          0.6333
N343       N   -0.0372823619    0.3359198102    0.0013188898          0.6365
H344       H   -0.0361277957    0.3282402075   -0.0216562765          0.6171
H345       H   -0.0457328204    0.3787892917    0.0189502974           -0.35
H346       H    0.0331302627    0.3377983179   -0.0035392299          0.6309
H347       H    0.0082143947    0.3807641925   -0.0245425465          0.6115
H348       H    0.0300059820    0.3528504632    0.0357442273         -0.3359
H349       H   -0.0173261089    0.3271571434    0.0459501630         -0.3251
C284       C   -0.3779390967   -0.0000000000    0.0000000000          0.6438
C285       C   -0.3629312923    0.0230312303    0.0160176836         -0.3532
C286       C   -0.3313138255    0.0242252515    0.0199049374          -0.352
C287       C   -0.3117637509    0.0015495395    0.0070222144         -0.3542
C288       C   -0.3274278534   -0.0216007443   -0.0091168289          0.6427
C289       C   -0.3591979657   -0.0226056952   -0.0126017963          0.6417
C290       C   -0.2789206192    0.0007293235    0.0096225153         -0.3533
N291       N   -0.3228008760    0.0486277085    0.0387573931          -0.347
H292       H   -0.3769393883    0.0417824621    0.0273173437         -0.3509
Br293     Br   -0.3747619542   -0.0573664668   -0.0368962935          0.6367
H294       H   -0.3148835790   -0.0406742589   -0.0210529067          0.6401
H295       H   -0.3138909093    0.0439572688    0.0608059799         -0.3286
H296       H   -0.3092588879    0.0664892253    0.0294772215          0.6386
C297       C   -0.2613814277    0.0254869604    0.0202520486          0.6448
C298       C   -0.2299753866    0.0245060779    0.0240475837         -0.3532
C299       C   -0.2126260791   -0.0011468156    0.0169174319         -0.3498
C300       C   -0.2289536184   -0.0260710118    0.0055302606         -0.3485
C301       C   -0.2608614521   -0.0250611326    0.0019322716         -0.3503
C302       C   -0.1762955910   -0.0000286007    0.0235755003         -0.3466
H303       H   -0.2187717368    0.0458481152    0.0335112508         -0.3544
H304       H   -0.2709043442    0.0485563860    0.0258348102          0.6409
H305       H   -0.2712757813   -0.0470727126   -0.0065927890         -0.3481
H306       H   -0.2164390542   -0.0479460908   -0.0004999592         -0.3454
C307       C   -0.1523905479   -0.0212018344    0.0048684743         -0.3541
C308       C   -0.1220609033   -0.0000000000    0.0000000000          0.6329
N309       N   -0.1296844698    0.0307467516    0.0151144727          0.6333
N310       N   -0.1640801898    0.0325304085    0.0182616127          0.6365
H311       H   -0.1717597925    0.0420356064   -0.0026869554          0.6171
H312       H   -0.1212107083    0.0319589511    0.0378051594           -0.35
H313       H   -0.1622016821   -0.0278224448   -0.0183317217          0.6309
H314       H   -0.1192358075    0.0039491796   -0.0255776631          0.6115
H315       H   -0.1471495368   -0.0430524181    0.0180138291         -0.3359
H316       H   -0.1728428566   -0.0056638751    0.0487804474         -0.3251
C251       C    0.3779390967   -0.0000000000    0.0000000000          0.6438
C252       C    0.3629312923    0.0253685664   -0.0119766270         -0.3532
C253       C    0.3313138255    0.0271906807   -0.0156120539          -0.352
C254       C    0.3117637509    0.0026925822   -0.0066680258         -0.3542
C255       C    0.3274278534   -0.0228135144    0.0054085378          0.6427
C256       C    0.3591979657   -0.0243824649    0.0086786018          0.6417
C257       C    0.2789206192    0.0023149319   -0.0093683405         -0.3533
N258       N    0.3228008760    0.0543815798   -0.0301568123          -0.347
H259       H    0.3769393883    0.0457340019   -0.0200103093         -0.3509
Br260     Br    0.3747619542   -0.0626907166    0.0268723285          0.6367
H261       H    0.3148835790   -0.0436023080    0.0140163818          0.6401
H262       H    0.3138909093    0.0534321336   -0.0526746217         -0.3286
H263       H    0.3092588879    0.0704568556   -0.0180431475          0.6386
C264       C    0.2613814277    0.0284924819   -0.0157451293          0.6448
C265       C    0.2299753866    0.0281545959   -0.0196507727         -0.3532
C266       C    0.2126260791    0.0016744888   -0.0168733748         -0.3498
C267       C    0.2289536184   -0.0247929539   -0.0097770586         -0.3485
C268       C    0.2608614521   -0.0243937135   -0.0060614177         -0.3503
C269       C    0.1762955910    0.0038813319   -0.0232538232         -0.3466
H270       H    0.2187717368    0.0507705017   -0.0254442480         -0.3544
H271       H    0.2709043442    0.0521682866   -0.0174249795          0.6409
H272       H    0.2712757813   -0.0475142421   -0.0013045837         -0.3481
H273       H    0.2164390542   -0.0473651508   -0.0074578866         -0.3454
C274       C    0.1523905479   -0.0201009382   -0.0083169772         -0.3541
C275       C    0.1220609033   -0.0000000000    0.0000000000          0.6329
N276       N    0.1296844698    0.0328274808   -0.0098064531          0.6333
N277       N    0.1640801898    0.0351083335   -0.0126142339          0.6365
H278       H    0.1717597925    0.0410080137    0.0096205375          0.6171
H279       H    0.1212107083    0.0377857041   -0.0319819511           -0.35
H280       H    0.1622016821   -0.0304771812    0.0134640962          0.6309
H281       H    0.1192358075   -0.0003470560    0.0258784161          0.6115
H282       H    0.1471495368   -0.0394690841   -0.0249038179         -0.3359
H283       H    0.1728428566    0.0025038306   -0.0490442898         -0.3251
C218       C    0.0000000000    0.0000000000   -0.1220609033          0.6438
C219       C    0.0278288117   -0.0035441501   -0.1370687077         -0.3532
C220       C    0.0306858800   -0.0064378655   -0.1686861745          -0.352
C221       C    0.0046227132   -0.0055084563   -0.1882362491         -0.3542
C222       C   -0.0233677928   -0.0019118006   -0.1725721466          0.6427
C223       C   -0.0258711172    0.0007127549   -0.1408020343          0.6417
C224       C    0.0050986630   -0.0081931892   -0.2210793808         -0.3533
N225       N    0.0610419006   -0.0118606880   -0.1771991240          -0.347
H226       H    0.0496803734   -0.0048858886   -0.1230606117         -0.3509
Br227     Br   -0.0679279701    0.0061675662   -0.1252380458          0.6367
H228       H   -0.0457995219   -0.0001549721   -0.1851164210          0.6401
H229       H    0.0671027551   -0.0335682726   -0.1861090907         -0.3286
H230       H    0.0725829315    0.0046305209   -0.1907411121          0.6386
C231       C    0.0319650198   -0.0061618282   -0.2386185723          0.6448
C232       C    0.0328515393   -0.0099805060   -0.2700246134         -0.3532
C233       C    0.0068105887   -0.0155283795   -0.2873739209         -0.3498
C234       C   -0.0205539678   -0.0169651361   -0.2710463816         -0.3485
C235       C   -0.0213233813   -0.0133081724   -0.2391385479         -0.3503
C236       C    0.0108824393   -0.0209135733   -0.3237044090         -0.3466
H237       H    0.0561504545   -0.0084958845   -0.2812282632         -0.3544
H238       H    0.0549997152   -0.0004374560   -0.2290956558          0.6409
H239       H   -0.0447815951   -0.0159346754   -0.2287242187         -0.3481
H240       H   -0.0427368693   -0.0217402298   -0.2835609458         -0.3454
C241       C   -0.0165434979   -0.0141255974   -0.3476094521         -0.3541
C242       C    0.0000000000    0.0000000000   -0.3779390967          0.6329
N243       N    0.0342509440    0.0008263504   -0.3703155302          0.6333
N244       N    0.0372883087   -0.0011384237   -0.3359198102          0.6365
H245       H    0.0360225538    0.0218308853   -0.3282402075          0.6171
H246       H    0.0458240062   -0.0187287235   -0.3787892917           -0.35
H247       H   -0.0331470049    0.0033788344   -0.3377983179          0.6309
H248       H   -0.0083330871    0.0245025004   -0.3807641925          0.6115
H249       H   -0.0298326245   -0.0358890409   -0.3528504632         -0.3359
H250       H    0.0175483098   -0.0458657645   -0.3271571434         -0.3251
C185       C   -0.0000000000    0.0000000000    0.1220609033          0.6438
C186       C   -0.0056508977   -0.0274785573    0.1370687077         -0.3532
C187       C   -0.0038372895   -0.0311182350    0.1686861745          -0.352
C188       C    0.0037163939   -0.0061563775    0.1882362491         -0.3542
C189       C    0.0093699289    0.0214921650    0.1725721466          0.6427
C190       C    0.0076965429    0.0247100375    0.1408020343          0.6417
C191       C    0.0061027052   -0.0074754065    0.2210793808         -0.3533
N192       N   -0.0085282887   -0.0615959239    0.1771991240          -0.347
H193       H   -0.0114517097   -0.0485887822    0.1230606117         -0.3509
Br194     Br    0.0161432393    0.0662694788    0.1252380458          0.6367
H195       H    0.0149657013    0.0432856559    0.1851164210          0.6401
H196       H    0.0100504932   -0.0743545308    0.1861090907         -0.3286
H197       H   -0.0278666350   -0.0671801632    0.1907411121          0.6386
C198       C   -0.0045123611   -0.0322392496    0.2386185723          0.6448
C199       C   -0.0011859494   -0.0343136658    0.2700246134         -0.3532
C200       C    0.0124893919   -0.0114686433    0.2873739209         -0.3498
C201       C    0.0227030390    0.0139589920    0.2710463816         -0.3485
C202       C    0.0194917510    0.0158702768    0.2391385479         -0.3503
C203       C    0.0162673932   -0.0170639078    0.3237044090         -0.3466
H204       H   -0.0101293924   -0.0558788780    0.2812282632         -0.3544
H205       H   -0.0173819913   -0.0521826257    0.2290956558          0.6409
H206       H    0.0295671929    0.0372167468    0.2287242187         -0.3481
H207       H    0.0343988462    0.0334035472    0.2835609458         -0.3454
C208       C    0.0187186067    0.0110830316    0.3476094521         -0.3541
C209       C    0.0000000000    0.0000000000    0.3779390967          0.6329
N210       N   -0.0118642624   -0.0321410842    0.3703155302          0.6333
N211       N   -0.0109879619   -0.0356507878    0.3359198102          0.6365
H212       H   -0.0323121158   -0.0270210863    0.3282402075          0.6171
H213       H    0.0028942495   -0.0494189028    0.3787892917           -0.35
H214       H    0.0075280951    0.0324571755    0.3377983179          0.6309
H215       H   -0.0204881369    0.0158129414    0.3807641925          0.6115
H216       H    0.0436111953    0.0166154261    0.3528504632         -0.3359
H217       H    0.0377204812   -0.0314448219    0.3271571434         -0.3251
loop_
_geom_bond_atom_site_label_1
_geom_bond_atom_site_label_2
_geom_bond_distance
_geom_bond_site_symmetry_2
_ccdc_geom_bond_type
Zn1          O5 1.942       .   S
Zn1          O6 1.922       .   S
Zn1         O10 1.922       .   S
Zn1         O17 1.922       .   S
Zn2          O5 1.942       .   S
Zn2          O7 1.922       .   S
Zn2          O9 1.922       .   S
Zn2         O13 1.922       .   S
Zn3          O5 1.942       .   S
Zn3          O8 1.922       .   S
Zn3         O11 1.922       .   S
Zn3         O14 1.922       .   S
Zn4          O5 1.942       .   S
Zn4         O12 1.922       .   S
Zn4         O15 1.922       .   S
Zn4         O16 1.922       .   S
O6          C18 1.304       .   A
O7          C19 1.304       .   A
O8          C20 1.304       .   A
O9          C18 1.304       .   A
O10         C20 1.304       .   A
O11         C19 1.304       .   A
O12         C21 1.304       .   A
O13         C22 1.304       .   A
O14         C21 1.304       .   A
O15         C22 1.304       .   A
O16         C23 1.304       .   A
O17         C23 1.304       .   A
C18        C185 1.540       .   S
C19        C275 1.540       .   S
C20        C350 1.540       .   S
C21        C218 1.540       .   S
C22        C317 1.540       .   S
C23        C308 1.540       .   S
Zn24        O28 1.942       .   S
Zn24        O29 1.922       .   S
Zn24        O33 1.922       .   S
Zn24        O40 1.922       .   S
Zn25        O28 1.942       .   S
Zn25        O30 1.922       .   S
Zn25        O32 1.922       .   S
Zn25        O36 1.922       .   S
Zn26        O28 1.942       .   S
Zn26        O31 1.922       .   S
Zn26        O34 1.922       .   S
Zn26        O37 1.922       .   S
Zn27        O28 1.942       .   S
Zn27        O35 1.922       .   S
Zn27        O38 1.922       .   S
Zn27        O39 1.922       .   S
O29         C41 1.304       .   A
O30         C42 1.304       .   A
O31         C43 1.304       .   A
O32         C41 1.304       .   A
O33         C43 1.304       .   A
O34         C42 1.304       .   A
O35         C44 1.304       .   A
O36         C45 1.304       .   A
O37         C44 1.304       .   A
O38         C45 1.304       .   A
O39         C46 1.304       .   A
O40         C46 1.304       .   A
C41        C209 1.540   1_655   S
C42        C407 1.540       .   S
C43        C449 1.540       .   S
C44        C242 1.540   1_656   S
C45        C482 1.540       .   S
C46        C416 1.540       .   S
Zn47        O51 1.942       .   S
Zn47        O52 1.922       .   S
Zn47        O56 1.922       .   S
Zn47        O63 1.922       .   S
Zn48        O51 1.942       .   S
Zn48        O53 1.922       .   S
Zn48        O55 1.922       .   S
Zn48        O59 1.922       .   S
Zn49        O51 1.942       .   S
Zn49        O54 1.922       .   S
Zn49        O57 1.922       .   S
Zn49        O60 1.922       .   S
Zn50        O51 1.942       .   S
Zn50        O58 1.922       .   S
Zn50        O61 1.922       .   S
Zn50        O62 1.922       .   S
O52         C64 1.304       .   A
O53         C65 1.304       .   A
O54         C66 1.304       .   A
O55         C64 1.304       .   A
O56         C66 1.304       .   A
O57         C65 1.304       .   A
O58         C67 1.304       .   A
O59         C68 1.304       .   A
O60         C67 1.304       .   A
O61         C68 1.304       .   A
O62         C69 1.304       .   A
O63         C69 1.304       .   A
C64        C341 1.540   1_655   S
C65        C515 1.540       .   S
C66        C581 1.540       .   S
C67        C374 1.540   1_665   S
C68        C638 1.540       .   S
C69        C572 1.540       .   S
Zn70        O74 1.942       .   S
Zn70        O75 1.922       .   S
Zn70        O79 1.922       .   S
Zn70        O86 1.922       .   S
Zn71        O74 1.942       .   S
Zn71        O76 1.922       .   S
Zn71        O78 1.922       .   S
Zn71        O82 1.922       .   S
Zn72        O74 1.942       .   S
Zn72        O77 1.922       .   S
Zn72        O80 1.922       .   S
Zn72        O83 1.922       .   S
Zn73        O74 1.942       .   S
Zn73        O81 1.922       .   S
Zn73        O84 1.922       .   S
Zn73        O85 1.922       .   S
O75         C87 1.304       .   A
O76         C88 1.304       .   A
O77         C89 1.304       .   A
O78         C87 1.304       .   A
O79         C89 1.304       .   A
O80         C88 1.304       .   A
O81         C90 1.304       .   A
O82         C91 1.304       .   A
O83         C90 1.304       .   A
O84         C91 1.304       .   A
O85         C92 1.304       .   A
O86         C92 1.304       .   A
C87        C473 1.540       .   S
C88        C539 1.540       .   S
C89        C680 1.540       .   S
C90        C506 1.540   1_565   S
C91        C647 1.540       .   S
C92        C548 1.540   1_556   S
Zn93        O97 1.942       .   S
Zn93        O98 1.922       .   S
Zn93       O102 1.922       .   S
Zn93       O109 1.922       .   S
Zn94        O97 1.942       .   S
Zn94        O99 1.922       .   S
Zn94       O101 1.922       .   S
Zn94       O105 1.922       .   S
Zn95        O97 1.942       .   S
Zn95       O100 1.922       .   S
Zn95       O103 1.922       .   S
Zn95       O106 1.922       .   S
Zn96        O97 1.942       .   S
Zn96       O104 1.922       .   S
Zn96       O107 1.922       .   S
Zn96       O108 1.922       .   S
O98        C110 1.304       .   A
O99        C111 1.304       .   A
O100       C112 1.304       .   A
O101       C110 1.304       .   A
O102       C112 1.304       .   A
O103       C111 1.304       .   A
O104       C113 1.304       .   A
O105       C114 1.304       .   A
O106       C113 1.304       .   A
O107       C114 1.304       .   A
O108       C115 1.304       .   A
O109       C115 1.304       .   A
C110       C251 1.540   1_565   S
C111       C713 1.540       .   S
C112       C836 1.540       .   S
C113       C284 1.540   1_665   S
C114       C803 1.540       .   S
C115       C746 1.540       .   S
Zn116      O120 1.942       .   S
Zn116      O121 1.922       .   S
Zn116      O125 1.922       .   S
Zn116      O132 1.922       .   S
Zn117      O120 1.942       .   S
Zn117      O122 1.922       .   S
Zn117      O124 1.922       .   S
Zn117      O128 1.922       .   S
Zn118      O120 1.942       .   S
Zn118      O123 1.922       .   S
Zn118      O126 1.922       .   S
Zn118      O129 1.922       .   S
Zn119      O120 1.942       .   S
Zn119      O127 1.922       .   S
Zn119      O130 1.922       .   S
Zn119      O131 1.922       .   S
O121       C133 1.304       .   A
O122       C134 1.304       .   A
O123       C135 1.304       .   A
O124       C133 1.304       .   A
O125       C135 1.304       .   A
O126       C134 1.304       .   A
O127       C136 1.304       .   A
O128       C137 1.304       .   A
O129       C136 1.304       .   A
O130       C137 1.304       .   A
O131       C138 1.304       .   A
O132       C138 1.304       .   A
C133       C383 1.540   1_465   S
C134       C845 1.540       .   S
C135       C770 1.540   1_556   S
C136       C440 1.540   1_565   S
C137       C737 1.540       .   S
C138       C878 1.540       .   S
Zn139      O143 1.942       .   S
Zn139      O144 1.922       .   S
Zn139      O148 1.922       .   S
Zn139      O155 1.922       .   S
Zn140      O143 1.942       .   S
Zn140      O145 1.922       .   S
Zn140      O147 1.922       .   S
Zn140      O151 1.922       .   S
Zn141      O143 1.942       .   S
Zn141      O146 1.922       .   S
Zn141      O149 1.922       .   S
Zn141      O152 1.922       .   S
Zn142      O143 1.942       .   S
Zn142      O150 1.922       .   S
Zn142      O153 1.922       .   S
Zn142      O154 1.922       .   S
O144       C156 1.304       .   A
O145       C157 1.304       .   A
O146       C158 1.304       .   A
O147       C156 1.304       .   A
O148       C158 1.304       .   A
O149       C157 1.304       .   A
O150       C159 1.304       .   A
O151       C160 1.304       .   A
O152       C159 1.304       .   A
O153       C160 1.304       .   A
O154       C161 1.304       .   A
O155       C161 1.304       .   A
C156       C605 1.540   1_455   S
C157       C779 1.540   1_545   S
C158       C968 1.540       .   S
C159       C614 1.540       .   S
C160       C935 1.540       .   S
C161       C812 1.540       .   S
Zn162      O166 1.942       .   S
Zn162      O167 1.922       .   S
Zn162      O171 1.922       .   S
Zn162      O178 1.922       .   S
Zn163      O166 1.942       .   S
Zn163      O168 1.922       .   S
Zn163      O170 1.922       .   S
Zn163      O174 1.922       .   S
Zn164      O166 1.942       .   S
Zn164      O169 1.922       .   S
Zn164      O172 1.922       .   S
Zn164      O175 1.922       .   S
Zn165      O166 1.942       .   S
Zn165      O173 1.922       .   S
Zn165      O176 1.922       .   S
Zn165      O177 1.922       .   S
O167       C179 1.304       .   A
O168       C180 1.304       .   A
O169       C181 1.304       .   A
O170       C179 1.304       .   A
O171       C181 1.304       .   A
O172       C180 1.304       .   A
O173       C182 1.304       .   A
O174       C183 1.304       .   A
O175       C182 1.304       .   A
O176       C183 1.304       .   A
O177       C184 1.304       .   A
O178       C184 1.304       .   A
C179       C671 1.540   1_455   S
C180       C902 1.540       .   S
C181       C944 1.540   1_556   S
C182       C704 1.540       .   S
C183       C911 1.540       .   S
C184       C869 1.540   1_545   S
C944       C945 0.027       .   A
C944       C949 0.028       .   A
C945       C946 0.027       .   A
C945       H952 0.022       .   A
C946       C947 0.028       .   A
C946       N951 0.028       .   A
C947       C948 0.028       .   A
C947       C950 0.028       .   A
C948       C949 0.028       .   A
C948       H954 0.022       .   A
C949      Br953 0.039       .   A
C950       C957 0.028       .   A
C950       C961 0.028       .   A
N951       H955 0.021       .   A
N951       H956 0.021       .   A
C957       C958 0.027       .   A
C957       H964 0.022       .   A
C958       C959 0.027       .   A
C958       H963 0.022       .   A
C959       C960 0.027       .   A
C959       C962 0.032       .   A
C960       C961 0.028       .   A
C960       H966 0.022       .   A
C961       H965 0.022       .   A
C962       C967 0.032       .   A
C962       N970 0.030       .   A
C962       H976 0.022       .   A
C967       C968 0.032       .   A
C967       H973 0.022       .   A
C967       H975 0.022       .   A
C968       N969 0.030       .   A
C968       H974 0.022       .   A
N969       N970 0.030       .   A
N969       H972 0.021       .   A
N970       H971 0.021       .   A
C911       C912 0.027       .   A
C911       C916 0.028       .   A
C912       C913 0.027       .   A
C912       H919 0.022       .   A
C913       C914 0.028       .   A
C913       N918 0.028       .   A
C914       C915 0.028       .   A
C914       C917 0.028       .   A
C915       C916 0.028       .   A
C915       H921 0.022       .   A
C916      Br920 0.039       .   A
C917       C924 0.028       .   A
C917       C928 0.028       .   A
N918       H922 0.021       .   A
N918       H923 0.021       .   A
C924       C925 0.027       .   A
C924       H931 0.022       .   A
C925       C926 0.027       .   A
C925       H930 0.022       .   A
C926       C927 0.027       .   A
C926       C929 0.032       .   A
C927       C928 0.028       .   A
C927       H933 0.022       .   A
C928       H932 0.022       .   A
C929       C934 0.032       .   A
C929       N937 0.030       .   A
C929       H943 0.022       .   A
C934       C935 0.032       .   A
C934       H940 0.022       .   A
C934       H942 0.022       .   A
C935       N936 0.030       .   A
C935       H941 0.022       .   A
N936       N937 0.030       .   A
N936       H939 0.021       .   A
N937       H938 0.021       .   A
C878       C879 0.027       .   A
C878       C883 0.028       .   A
C879       C880 0.027       .   A
C879       H886 0.022       .   A
C880       C881 0.028       .   A
C880       N885 0.028       .   A
C881       C882 0.028       .   A
C881       C884 0.028       .   A
C882       C883 0.028       .   A
C882       H888 0.022       .   A
C883      Br887 0.039       .   A
C884       C891 0.028       .   A
C884       C895 0.028       .   A
N885       H889 0.021       .   A
N885       H890 0.021       .   A
C891       C892 0.027       .   A
C891       H898 0.022       .   A
C892       C893 0.027       .   A
C892       H897 0.022       .   A
C893       C894 0.027       .   A
C893       C896 0.032       .   A
C894       C895 0.028       .   A
C894       H900 0.022       .   A
C895       H899 0.022       .   A
C896       C901 0.032       .   A
C896       N904 0.030       .   A
C896       H910 0.022       .   A
C901       C902 0.032       .   A
C901       H907 0.022       .   A
C901       H909 0.022       .   A
C902       N903 0.030       .   A
C902       H908 0.022       .   A
N903       N904 0.030       .   A
N903       H906 0.021       .   A
N904       H905 0.021       .   A
C845       C846 0.027       .   A
C845       C850 0.028       .   A
C846       C847 0.027       .   A
C846       H853 0.022       .   A
C847       C848 0.028       .   A
C847       N852 0.028       .   A
C848       C849 0.028       .   A
C848       C851 0.028       .   A
C849       C850 0.028       .   A
C849       H855 0.022       .   A
C850      Br854 0.039       .   A
C851       C858 0.028       .   A
C851       C862 0.028       .   A
N852       H856 0.021       .   A
N852       H857 0.021       .   A
C858       C859 0.027       .   A
C858       H865 0.022       .   A
C859       C860 0.027       .   A
C859       H864 0.022       .   A
C860       C861 0.027       .   A
C860       C863 0.032       .   A
C861       C862 0.028       .   A
C861       H867 0.022       .   A
C862       H866 0.022       .   A
C863       C868 0.032       .   A
C863       N871 0.030       .   A
C863       H877 0.022       .   A
C868       C869 0.032       .   A
C868       H874 0.022       .   A
C868       H876 0.022       .   A
C869       N870 0.030       .   A
C869       H875 0.022       .   A
N870       N871 0.030       .   A
N870       H873 0.021       .   A
N871       H872 0.021       .   A
C812       C813 0.027       .   A
C812       C817 0.028       .   A
C813       C814 0.027       .   A
C813       H820 0.022       .   A
C814       C815 0.028       .   A
C814       N819 0.028       .   A
C815       C816 0.028       .   A
C815       C818 0.028       .   A
C816       C817 0.028       .   A
C816       H822 0.022       .   A
C817      Br821 0.039       .   A
C818       C825 0.028       .   A
C818       C829 0.028       .   A
N819       H823 0.021       .   A
N819       H824 0.021       .   A
C825       C826 0.027       .   A
C825       H832 0.022       .   A
C826       C827 0.027       .   A
C826       H831 0.022       .   A
C827       C828 0.027       .   A
C827       C830 0.032       .   A
C828       C829 0.028       .   A
C828       H834 0.022       .   A
C829       H833 0.022       .   A
C830       C835 0.032       .   A
C830       N838 0.030       .   A
C830       H844 0.022       .   A
C835       C836 0.032       .   A
C835       H841 0.022       .   A
C835       H843 0.022       .   A
C836       N837 0.030       .   A
C836       H842 0.022       .   A
N837       N838 0.030       .   A
N837       H840 0.021       .   A
N838       H839 0.021       .   A
C779       C780 0.027       .   A
C779       C784 0.028       .   A
C780       C781 0.027       .   A
C780       H787 0.022       .   A
C781       C782 0.028       .   A
C781       N786 0.028       .   A
C782       C783 0.028       .   A
C782       C785 0.028       .   A
C783       C784 0.028       .   A
C783       H789 0.022       .   A
C784      Br788 0.039       .   A
C785       C792 0.028       .   A
C785       C796 0.028       .   A
N786       H790 0.021       .   A
N786       H791 0.021       .   A
C792       C793 0.027       .   A
C792       H799 0.022       .   A
C793       C794 0.027       .   A
C793       H798 0.022       .   A
C794       C795 0.027       .   A
C794       C797 0.032       .   A
C795       C796 0.028       .   A
C795       H801 0.022       .   A
C796       H800 0.022       .   A
C797       C802 0.032       .   A
C797       N805 0.030       .   A
C797       H811 0.022       .   A
C802       C803 0.032       .   A
C802       H808 0.022       .   A
C802       H810 0.022       .   A
C803       N804 0.030       .   A
C803       H809 0.022       .   A
N804       N805 0.030       .   A
N804       H807 0.021       .   A
N805       H806 0.021       .   A
C746       C747 0.027       .   A
C746       C751 0.028       .   A
C747       C748 0.027       .   A
C747       H754 0.022       .   A
C748       C749 0.028       .   A
C748       N753 0.028       .   A
C749       C750 0.028       .   A
C749       C752 0.028       .   A
C750       C751 0.028       .   A
C750       H756 0.022       .   A
C751      Br755 0.039       .   A
C752       C759 0.028       .   A
C752       C763 0.028       .   A
N753       H757 0.021       .   A
N753       H758 0.021       .   A
C759       C760 0.027       .   A
C759       H766 0.022       .   A
C760       C761 0.027       .   A
C760       H765 0.022       .   A
C761       C762 0.027       .   A
C761       C764 0.032       .   A
C762       C763 0.028       .   A
C762       H768 0.022       .   A
C763       H767 0.022       .   A
C764       C769 0.032       .   A
C764       N772 0.030       .   A
C764       H778 0.022       .   A
C769       C770 0.032       .   A
C769       H775 0.022       .   A
C769       H777 0.022       .   A
C770       N771 0.030       .   A
C770       H776 0.022       .   A
N771       N772 0.030       .   A
N771       H774 0.021       .   A
N772       H773 0.021       .   A
C713       C714 0.027       .   A
C713       C718 0.028       .   A
C714       C715 0.027       .   A
C714       H721 0.022       .   A
C715       C716 0.028       .   A
C715       N720 0.028       .   A
C716       C717 0.028       .   A
C716       C719 0.028       .   A
C717       C718 0.028       .   A
C717       H723 0.022       .   A
C718      Br722 0.039       .   A
C719       C726 0.028       .   A
C719       C730 0.028       .   A
N720       H724 0.021       .   A
N720       H725 0.021       .   A
C726       C727 0.027       .   A
C726       H733 0.022       .   A
C727       C728 0.027       .   A
C727       H732 0.022       .   A
C728       C729 0.027       .   A
C728       C731 0.032       .   A
C729       C730 0.028       .   A
C729       H735 0.022       .   A
C730       H734 0.022       .   A
C731       C736 0.032       .   A
C731       N739 0.030       .   A
C731       H745 0.022       .   A
C736       C737 0.032       .   A
C736       H742 0.022       .   A
C736       H744 0.022       .   A
C737       N738 0.030       .   A
C737       H743 0.022       .   A
N738       N739 0.030       .   A
N738       H741 0.021       .   A
N739       H740 0.021       .   A
C680       C681 0.027       .   A
C680       C685 0.028       .   A
C681       C682 0.027       .   A
C681       H688 0.022       .   A
C682       C683 0.028       .   A
C682       N687 0.028       .   A
C683       C684 0.028       .   A
C683       C686 0.028       .   A
C684       C685 0.028       .   A
C684       H690 0.022       .   A
C685      Br689 0.039       .   A
C686       C693 0.028       .   A
C686       C697 0.028       .   A
N687       H691 0.021       .   A
N687       H692 0.021       .   A
C693       C694 0.027       .   A
C693       H700 0.022       .   A
C694       C695 0.027       .   A
C694       H699 0.022       .   A
C695       C696 0.027       .   A
C695       C698 0.032       .   A
C696       C697 0.028       .   A
C696       H702 0.022       .   A
C697       H701 0.022       .   A
C698       C703 0.032       .   A
C698       N706 0.030       .   A
C698       H712 0.022       .   A
C703       C704 0.032       .   A
C703       H709 0.022       .   A
C703       H711 0.022       .   A
C704       N705 0.030       .   A
C704       H710 0.022       .   A
N705       N706 0.030       .   A
N705       H708 0.021       .   A
N706       H707 0.021       .   A
C647       C648 0.027       .   A
C647       C652 0.028       .   A
C648       C649 0.027       .   A
C648       H655 0.022       .   A
C649       C650 0.028       .   A
C649       N654 0.028       .   A
C650       C651 0.028       .   A
C650       C653 0.028       .   A
C651       C652 0.028       .   A
C651       H657 0.022       .   A
C652      Br656 0.039       .   A
C653       C660 0.028       .   A
C653       C664 0.028       .   A
N654       H658 0.021       .   A
N654       H659 0.021       .   A
C660       C661 0.027       .   A
C660       H667 0.022       .   A
C661       C662 0.027       .   A
C661       H666 0.022       .   A
C662       C663 0.027       .   A
C662       C665 0.032       .   A
C663       C664 0.028       .   A
C663       H669 0.022       .   A
C664       H668 0.022       .   A
C665       C670 0.032       .   A
C665       N673 0.030       .   A
C665       H679 0.022       .   A
C670       C671 0.032       .   A
C670       H676 0.022       .   A
C670       H678 0.022       .   A
C671       N672 0.030       .   A
C671       H677 0.022       .   A
N672       N673 0.030       .   A
N672       H675 0.021       .   A
N673       H674 0.021       .   A
C614       C615 0.027       .   A
C614       C619 0.028       .   A
C615       C616 0.027       .   A
C615       H622 0.022       .   A
C616       C617 0.028       .   A
C616       N621 0.028       .   A
C617       C618 0.028       .   A
C617       C620 0.028       .   A
C618       C619 0.028       .   A
C618       H624 0.022       .   A
C619      Br623 0.039       .   A
C620       C627 0.028       .   A
C620       C631 0.028       .   A
N621       H625 0.021       .   A
N621       H626 0.021       .   A
C627       C628 0.027       .   A
C627       H634 0.022       .   A
C628       C629 0.027       .   A
C628       H633 0.022       .   A
C629       C630 0.027       .   A
C629       C632 0.032       .   A
C630       C631 0.028       .   A
C630       H636 0.022       .   A
C631       H635 0.022       .   A
C632       C637 0.032       .   A
C632       N640 0.030       .   A
C632       H646 0.022       .   A
C637       C638 0.032       .   A
C637       H643 0.022       .   A
C637       H645 0.022       .   A
C638       N639 0.030       .   A
C638       H644 0.022       .   A
N639       N640 0.030       .   A
N639       H642 0.021       .   A
N640       H641 0.021       .   A
C581       C582 0.027       .   A
C581       C586 0.028       .   A
C582       C583 0.027       .   A
C582       H589 0.022       .   A
C583       C584 0.028       .   A
C583       N588 0.028       .   A
C584       C585 0.028       .   A
C584       C587 0.028       .   A
C585       C586 0.028       .   A
C585       H591 0.022       .   A
C586      Br590 0.039       .   A
C587       C594 0.028       .   A
C587       C598 0.028       .   A
N588       H592 0.021       .   A
N588       H593 0.021       .   A
C594       C595 0.027       .   A
C594       H601 0.022       .   A
C595       C596 0.027       .   A
C595       H600 0.022       .   A
C596       C597 0.027       .   A
C596       C599 0.032       .   A
C597       C598 0.028       .   A
C597       H603 0.022       .   A
C598       H602 0.022       .   A
C599       C604 0.032       .   A
C599       N607 0.030       .   A
C599       H613 0.022       .   A
C604       C605 0.032       .   A
C604       H610 0.022       .   A
C604       H612 0.022       .   A
C605       N606 0.030       .   A
C605       H611 0.022       .   A
N606       N607 0.030       .   A
N606       H609 0.021       .   A
N607       H608 0.021       .   A
C548       C549 0.027       .   A
C548       C553 0.028       .   A
C549       C550 0.027       .   A
C549       H556 0.022       .   A
C550       C551 0.028       .   A
C550       N555 0.028       .   A
C551       C552 0.028       .   A
C551       C554 0.028       .   A
C552       C553 0.028       .   A
C552       H558 0.022       .   A
C553      Br557 0.039       .   A
C554       C561 0.028       .   A
C554       C565 0.028       .   A
N555       H559 0.021       .   A
N555       H560 0.021       .   A
C561       C562 0.027       .   A
C561       H568 0.022       .   A
C562       C563 0.027       .   A
C562       H567 0.022       .   A
C563       C564 0.027       .   A
C563       C566 0.032       .   A
C564       C565 0.028       .   A
C564       H570 0.022       .   A
C565       H569 0.022       .   A
C566       C571 0.032       .   A
C566       N574 0.030       .   A
C566       H580 0.022       .   A
C571       C572 0.032       .   A
C571       H577 0.022       .   A
C571       H579 0.022       .   A
C572       N573 0.030       .   A
C572       H578 0.022       .   A
N573       N574 0.030       .   A
N573       H576 0.021       .   A
N574       H575 0.021       .   A
C515       C516 0.027       .   A
C515       C520 0.028       .   A
C516       C517 0.027       .   A
C516       H523 0.022       .   A
C517       C518 0.028       .   A
C517       N522 0.028       .   A
C518       C519 0.028       .   A
C518       C521 0.028       .   A
C519       C520 0.028       .   A
C519       H525 0.022       .   A
C520      Br524 0.039       .   A
C521       C528 0.028       .   A
C521       C532 0.028       .   A
N522       H526 0.021       .   A
N522       H527 0.021       .   A
C528       C529 0.027       .   A
C528       H535 0.022       .   A
C529       C530 0.027       .   A
C529       H534 0.022       .   A
C530       C531 0.027       .   A
C530       C533 0.032       .   A
C531       C532 0.028       .   A
C531       H537 0.022       .   A
C532       H536 0.022       .   A
C533       C538 0.032       .   A
C533       N541 0.030       .   A
C533       H547 0.022       .   A
C538       C539 0.032       .   A
C538       H544 0.022       .   A
C538       H546 0.022       .   A
C539       N540 0.030       .   A
C539       H545 0.022       .   A
N540       N541 0.030       .   A
N540       H543 0.021       .   A
N541       H542 0.021       .   A
C482       C483 0.027       .   A
C482       C487 0.028       .   A
C483       C484 0.027       .   A
C483       H490 0.022       .   A
C484       C485 0.028       .   A
C484       N489 0.028       .   A
C485       C486 0.028       .   A
C485       C488 0.028       .   A
C486       C487 0.028       .   A
C486       H492 0.022       .   A
C487      Br491 0.039       .   A
C488       C495 0.028       .   A
C488       C499 0.028       .   A
N489       H493 0.021       .   A
N489       H494 0.021       .   A
C495       C496 0.027       .   A
C495       H502 0.022       .   A
C496       C497 0.027       .   A
C496       H501 0.022       .   A
C497       C498 0.027       .   A
C497       C500 0.032       .   A
C498       C499 0.028       .   A
C498       H504 0.022       .   A
C499       H503 0.022       .   A
C500       C505 0.032       .   A
C500       N508 0.030       .   A
C500       H514 0.022       .   A
C505       C506 0.032       .   A
C505       H511 0.022       .   A
C505       H513 0.022       .   A
C506       N507 0.030       .   A
C506       H512 0.022       .   A
N507       N508 0.030       .   A
N507       H510 0.021       .   A
N508       H509 0.021       .   A
C449       C450 0.027       .   A
C449       C454 0.028       .   A
C450       C451 0.027       .   A
C450       H457 0.022       .   A
C451       C452 0.028       .   A
C451       N456 0.028       .   A
C452       C453 0.028       .   A
C452       C455 0.028       .   A
C453       C454 0.028       .   A
C453       H459 0.022       .   A
C454      Br458 0.039       .   A
C455       C462 0.028       .   A
C455       C466 0.028       .   A
N456       H460 0.021       .   A
N456       H461 0.021       .   A
C462       C463 0.027       .   A
C462       H469 0.022       .   A
C463       C464 0.027       .   A
C463       H468 0.022       .   A
C464       C465 0.027       .   A
C464       C467 0.032       .   A
C465       C466 0.028       .   A
C465       H471 0.022       .   A
C466       H470 0.022       .   A
C467       C472 0.032       .   A
C467       N475 0.030       .   A
C467       H481 0.022       .   A
C472       C473 0.032       .   A
C472       H478 0.022       .   A
C472       H480 0.022       .   A
C473       N474 0.030       .   A
C473       H479 0.022       .   A
N474       N475 0.030       .   A
N474       H477 0.021       .   A
N475       H476 0.021       .   A
C416       C417 0.027       .   A
C416       C421 0.028       .   A
C417       C418 0.027       .   A
C417       H424 0.022       .   A
C418       C419 0.028       .   A
C418       N423 0.028       .   A
C419       C420 0.028       .   A
C419       C422 0.028       .   A
C420       C421 0.028       .   A
C420       H426 0.022       .   A
C421      Br425 0.039       .   A
C422       C429 0.028       .   A
C422       C433 0.028       .   A
N423       H427 0.021       .   A
N423       H428 0.021       .   A
C429       C430 0.027       .   A
C429       H436 0.022       .   A
C430       C431 0.027       .   A
C430       H435 0.022       .   A
C431       C432 0.027       .   A
C431       C434 0.032       .   A
C432       C433 0.028       .   A
C432       H438 0.022       .   A
C433       H437 0.022       .   A
C434       C439 0.032       .   A
C434       N442 0.030       .   A
C434       H448 0.022       .   A
C439       C440 0.032       .   A
C439       H445 0.022       .   A
C439       H447 0.022       .   A
C440       N441 0.030       .   A
C440       H446 0.022       .   A
N441       N442 0.030       .   A
N441       H444 0.021       .   A
N442       H443 0.021       .   A
C383       C384 0.027       .   A
C383       C388 0.028       .   A
C384       C385 0.027       .   A
C384       H391 0.022       .   A
C385       C386 0.028       .   A
C385       N390 0.028       .   A
C386       C387 0.028       .   A
C386       C389 0.028       .   A
C387       C388 0.028       .   A
C387       H393 0.022       .   A
C388      Br392 0.039       .   A
C389       C396 0.028       .   A
C389       C400 0.028       .   A
N390       H394 0.021       .   A
N390       H395 0.021       .   A
C396       C397 0.027       .   A
C396       H403 0.022       .   A
C397       C398 0.027       .   A
C397       H402 0.022       .   A
C398       C399 0.027       .   A
C398       C401 0.032       .   A
C399       C400 0.028       .   A
C399       H405 0.022       .   A
C400       H404 0.022       .   A
C401       C406 0.032       .   A
C401       N409 0.030       .   A
C401       H415 0.022       .   A
C406       C407 0.032       .   A
C406       H412 0.022       .   A
C406       H414 0.022       .   A
C407       N408 0.030       .   A
C407       H413 0.022       .   A
N408       N409 0.030       .   A
N408       H411 0.021       .   A
N409       H410 0.021       .   A
C350       C351 0.027       .   A
C350       C355 0.028       .   A
C351       C352 0.027       .   A
C351       H358 0.022       .   A
C352       C353 0.028       .   A
C352       N357 0.028       .   A
C353       C354 0.028       .   A
C353       C356 0.028       .   A
C354       C355 0.028       .   A
C354       H360 0.022       .   A
C355      Br359 0.039       .   A
C356       C363 0.028       .   A
C356       C367 0.028       .   A
N357       H361 0.021       .   A
N357       H362 0.021       .   A
C363       C364 0.027       .   A
C363       H370 0.022       .   A
C364       C365 0.027       .   A
C364       H369 0.022       .   A
C365       C366 0.027       .   A
C365       C368 0.032       .   A
C366       C367 0.028       .   A
C366       H372 0.022       .   A
C367       H371 0.022       .   A
C368       C373 0.032       .   A
C368       N376 0.030       .   A
C368       H382 0.022       .   A
C373       C374 0.032       .   A
C373       H379 0.022       .   A
C373       H381 0.022       .   A
C374       N375 0.030       .   A
C374       H380 0.022       .   A
N375       N376 0.030       .   A
N375       H378 0.021       .   A
N376       H377 0.021       .   A
C317       C318 0.027       .   A
C317       C322 0.028       .   A
C318       C319 0.027       .   A
C318       H325 0.022       .   A
C319       C320 0.028       .   A
C319       N324 0.028       .   A
C320       C321 0.028       .   A
C320       C323 0.028       .   A
C321       C322 0.028       .   A
C321       H327 0.022       .   A
C322      Br326 0.039       .   A
C323       C330 0.028       .   A
C323       C334 0.028       .   A
N324       H328 0.021       .   A
N324       H329 0.021       .   A
C330       C331 0.027       .   A
C330       H337 0.022       .   A
C331       C332 0.027       .   A
C331       H336 0.022       .   A
C332       C333 0.027       .   A
C332       C335 0.032       .   A
C333       C334 0.028       .   A
C333       H339 0.022       .   A
C334       H338 0.022       .   A
C335       C340 0.032       .   A
C335       N343 0.030       .   A
C335       H349 0.022       .   A
C340       C341 0.032       .   A
C340       H346 0.022       .   A
C340       H348 0.022       .   A
C341       N342 0.030       .   A
C341       H347 0.022       .   A
N342       N343 0.030       .   A
N342       H345 0.021       .   A
N343       H344 0.021       .   A
C284       C285 0.027       .   A
C284       C289 0.028       .   A
C285       C286 0.027       .   A
C285       H292 0.022       .   A
C286       C287 0.028       .   A
C286       N291 0.028       .   A
C287       C288 0.028       .   A
C287       C290 0.028       .   A
C288       C289 0.028       .   A
C288       H294 0.022       .   A
C289      Br293 0.039       .   A
C290       C297 0.028       .   A
C290       C301 0.028       .   A
N291       H295 0.021       .   A
N291       H296 0.021       .   A
C297       C298 0.027       .   A
C297       H304 0.022       .   A
C298       C299 0.027       .   A
C298       H303 0.022       .   A
C299       C300 0.027       .   A
C299       C302 0.032       .   A
C300       C301 0.028       .   A
C300       H306 0.022       .   A
C301       H305 0.022       .   A
C302       C307 0.032       .   A
C302       N310 0.030       .   A
C302       H316 0.022       .   A
C307       C308 0.032       .   A
C307       H313 0.022       .   A
C307       H315 0.022       .   A
C308       N309 0.030       .   A
C308       H314 0.022       .   A
N309       N310 0.030       .   A
N309       H312 0.021       .   A
N310       H311 0.021       .   A
C251       C252 0.027       .   A
C251       C256 0.028       .   A
C252       C253 0.027       .   A
C252       H259 0.022       .   A
C253       C254 0.028       .   A
C253       N258 0.028       .   A
C254       C255 0.028       .   A
C254       C257 0.028       .   A
C255       C256 0.028       .   A
C255       H261 0.022       .   A
C256      Br260 0.039       .   A
C257       C264 0.028       .   A
C257       C268 0.028       .   A
N258       H262 0.021       .   A
N258       H263 0.021       .   A
C264       C265 0.027       .   A
C264       H271 0.022       .   A
C265       C266 0.027       .   A
C265       H270 0.022       .   A
C266       C267 0.027       .   A
C266       C269 0.032       .   A
C267       C268 0.028       .   A
C267       H273 0.022       .   A
C268       H272 0.022       .   A
C269       C274 0.032       .   A
C269       N277 0.030       .   A
C269       H283 0.022       .   A
C274       C275 0.032       .   A
C274       H280 0.022       .   A
C274       H282 0.022       .   A
C275       N276 0.030       .   A
C275       H281 0.022       .   A
N276       N277 0.030       .   A
N276       H279 0.021       .   A
N277       H278 0.021       .   A
C218       C219 0.027       .   A
C218       C223 0.028       .   A
C219       C220 0.027       .   A
C219       H226 0.022       .   A
C220       C221 0.028       .   A
C220       N225 0.028       .   A
C221       C222 0.028       .   A
C221       C224 0.028       .   A
C222       C223 0.028       .   A
C222       H228 0.022       .   A
C223      Br227 0.039       .   A
C224       C231 0.028       .   A
C224       C235 0.028       .   A
N225       H229 0.021       .   A
N225       H230 0.021       .   A
C231       C232 0.027       .   A
C231       H238 0.022       .   A
C232       C233 0.027       .   A
C232       H237 0.022       .   A
C233       C234 0.027       .   A
C233       C236 0.032       .   A
C234       C235 0.028       .   A
C234       H240 0.022       .   A
C235       H239 0.022       .   A
C236       C241 0.032       .   A
C236       N244 0.030       .   A
C236       H250 0.022       .   A
C241       C242 0.032       .   A
C241       H247 0.022       .   A
C241       H249 0.022       .   A
C242       N243 0.030       .   A
C242       H248 0.022       .   A
N243       N244 0.030       .   A
N243       H246 0.021       .   A
N244       H245 0.021       .   A
C185       C186 0.027       .   A
C185       C190 0.028       .   A
C186       C187 0.027       .   A
C186       H193 0.022       .   A
C187       C188 0.028       .   A
C187       N192 0.028       .   A
C188       C189 0.028       .   A
C188       C191 0.028       .   A
C189       C190 0.028       .   A
C189       H195 0.022       .   A
C190      Br194 0.039       .   A
C191       C198 0.028       .   A
C191       C202 0.028       .   A
N192       H196 0.021       .   A
N192       H197 0.021       .   A
C198       C199 0.027       .   A
C198       H205 0.022       .   A
C199       C200 0.027       .   A
C199       H204 0.022       .   A
C200       C201 0.027       .   A
C200       C203 0.032       .   A
C201       C202 0.028       .   A
C201       H207 0.022       .   A
C202       H206 0.022       .   A
C203       C208 0.032       .   A
C203       N211 0.030       .   A
C203       H217 0.022       .   A
C208       C209 0.032       .   A
C208       H214 0.022       .   A
C208       H216 0.022       .   A
C209       N210 0.030       .   A
C209       H215 0.022       .   A
N210       N211 0.030       .   A
N210       H213 0.021       .   A
N211       H212 0.021       .   A
