data_pcu_v1-6c_Zn_1_Ch_1-78_fer_tobacco
_audit_creation_date              2021-02-03
_audit_creation_method            'tobacco_3.0'
_symmetry_space_group_name_H-M    'P1'
_symmetry_Int_Tables_number       1
_symmetry_cell_setting            triclinic
loop_
_symmetry_equiv_pos_as_xyz
  x,y,z
_cell_length_a                    46.185171306967675
_cell_length_b                    46.185171306967675
_cell_length_c                    46.185171306967675
_cell_angle_alpha                 90.0
_cell_angle_beta                  90.0
_cell_angle_gamma                 90.0
loop_
_atom_site_label
_atom_site_type_symbol
_atom_site_fract_x
_atom_site_fract_y
_atom_site_fract_z
_atom_site_charge
Zn1       Zn   -0.0242761901    0.0242761901   -0.0242761901          1.4972
Zn2       Zn    0.0242761901    0.0242761901    0.0242761901          1.4936
Zn3       Zn   -0.0242761901   -0.0242761901    0.0242761901          1.4911
Zn4       Zn    0.0242761901   -0.0242761901   -0.0242761901          1.4948
O5         O    0.0000000000    0.0000000000    0.0000000000         -2.3083
O6         O   -0.0178412243    0.0648822970   -0.0178412243         -1.2146
O7         O    0.0178412243    0.0178412243    0.0648822970         -1.2128
O8         O   -0.0648822970   -0.0178412243    0.0178412243         -1.2079
O9         O    0.0178412243    0.0648822970    0.0178412243         -1.2147
O10        O   -0.0648822970    0.0178412243   -0.0178412243         -1.2107
O11        O   -0.0178412243   -0.0178412243    0.0648822970         -1.2166
O12        O    0.0178412243   -0.0648822970   -0.0178412243         -1.2105
O13        O    0.0648822970    0.0178412243    0.0178412243          -1.218
O14        O   -0.0178412243   -0.0648822970    0.0178412243         -1.2119
O15        O    0.0648822970   -0.0178412243   -0.0178412243         -1.2166
O16        O    0.0178412243   -0.0178412243   -0.0648822970         -1.2157
O17        O   -0.0178412243    0.0178412243   -0.0648822970         -1.2136
C18        C   -0.0000000000    0.0775746825    0.0000000000          0.3043
C19        C    0.0000000000   -0.0000000000    0.0775746825          0.3092
C20        C   -0.0775746825    0.0000000000    0.0000000000          0.2988
C21        C    0.0000000000   -0.0775746825   -0.0000000000          0.3026
C22        C    0.0775746825   -0.0000000000   -0.0000000000          0.3139
C23        C   -0.0000000000    0.0000000000   -0.0775746825          0.3044
Zn24      Zn    0.9757238099   -0.0242761901    0.4757238099          1.4972
Zn25      Zn    1.0242761901   -0.0242761901    0.5242761901          1.4936
Zn26      Zn    1.0242761901    0.0242761901    0.4757238099          1.4911
Zn27      Zn    0.9757238099    0.0242761901    0.5242761901          1.4948
O28        O    1.0000000000    0.0000000000    0.5000000000         -2.3083
O29        O    0.9821587757   -0.0648822970    0.4821587757         -1.2146
O30        O    1.0648822970   -0.0178412243    0.5178412243         -1.2128
O31        O    1.0178412243    0.0178412243    0.4351177030         -1.2079
O32        O    1.0178412243   -0.0648822970    0.5178412243         -1.2147
O33        O    0.9821587757   -0.0178412243    0.4351177030         -1.2107
O34        O    1.0648822970    0.0178412243    0.4821587757         -1.2166
O35        O    0.9821587757    0.0648822970    0.5178412243         -1.2105
O36        O    1.0178412243   -0.0178412243    0.5648822970          -1.218
O37        O    1.0178412243    0.0648822970    0.4821587757         -1.2119
O38        O    0.9821587757    0.0178412243    0.5648822970         -1.2166
O39        O    0.9351177030    0.0178412243    0.5178412243         -1.2157
O40        O    0.9351177030   -0.0178412243    0.4821587757         -1.2136
C41        C    1.0000000000   -0.0775746825    0.5000000000          0.3043
C42        C    1.0775746825    0.0000000000    0.5000000000          0.3092
C43        C    1.0000000000    0.0000000000    0.4224253175          0.2988
C44        C    1.0000000000    0.0775746825    0.5000000000          0.3026
C45        C    1.0000000000    0.0000000000    0.5775746825          0.3139
C46        C    0.9224253175    0.0000000000    0.5000000000          0.3044
Zn47      Zn    1.0242761901    0.4757238099   -0.0242761901          1.4972
Zn48      Zn    0.9757238099    0.4757238099    0.0242761901          1.4936
Zn49      Zn    1.0242761901    0.5242761901    0.0242761901          1.4911
Zn50      Zn    0.9757238099    0.5242761901   -0.0242761901          1.4948
O51        O    1.0000000000    0.5000000000    0.0000000000         -2.3083
O52        O    1.0178412243    0.4351177030   -0.0178412243         -1.2146
O53        O    0.9821587757    0.4821587757    0.0648822970         -1.2128
O54        O    1.0648822970    0.5178412243    0.0178412243         -1.2079
O55        O    0.9821587757    0.4351177030    0.0178412243         -1.2147
O56        O    1.0648822970    0.4821587757   -0.0178412243         -1.2107
O57        O    1.0178412243    0.5178412243    0.0648822970         -1.2166
O58        O    0.9821587757    0.5648822970   -0.0178412243         -1.2105
O59        O    0.9351177030    0.4821587757    0.0178412243          -1.218
O60        O    1.0178412243    0.5648822970    0.0178412243         -1.2119
O61        O    0.9351177030    0.5178412243   -0.0178412243         -1.2166
O62        O    0.9821587757    0.5178412243   -0.0648822970         -1.2157
O63        O    1.0178412243    0.4821587757   -0.0648822970         -1.2136
C64        C    1.0000000000    0.4224253175    0.0000000000          0.3043
C65        C    1.0000000000    0.5000000000    0.0775746825          0.3092
C66        C    1.0775746825    0.5000000000    0.0000000000          0.2988
C67        C    1.0000000000    0.5775746825    0.0000000000          0.3026
C68        C    0.9224253175    0.5000000000    0.0000000000          0.3139
C69        C    1.0000000000    0.5000000000   -0.0775746825          0.3044
Zn70      Zn    0.9757238099    0.4757238099    0.5242761901          1.4972
Zn71      Zn    1.0242761901    0.4757238099    0.4757238099          1.4936
Zn72      Zn    0.9757238099    0.5242761901    0.4757238099          1.4911
Zn73      Zn    1.0242761901    0.5242761901    0.5242761901          1.4948
O74        O    1.0000000000    0.5000000000    0.5000000000         -2.3083
O75        O    0.9821587757    0.4351177030    0.5178412243         -1.2146
O76        O    1.0178412243    0.4821587757    0.4351177030         -1.2128
O77        O    0.9351177030    0.5178412243    0.4821587757         -1.2079
O78        O    1.0178412243    0.4351177030    0.4821587757         -1.2147
O79        O    0.9351177030    0.4821587757    0.5178412243         -1.2107
O80        O    0.9821587757    0.5178412243    0.4351177030         -1.2166
O81        O    1.0178412243    0.5648822970    0.5178412243         -1.2105
O82        O    1.0648822970    0.4821587757    0.4821587757          -1.218
O83        O    0.9821587757    0.5648822970    0.4821587757         -1.2119
O84        O    1.0648822970    0.5178412243    0.5178412243         -1.2166
O85        O    1.0178412243    0.5178412243    0.5648822970         -1.2157
O86        O    0.9821587757    0.4821587757    0.5648822970         -1.2136
C87        C    1.0000000000    0.4224253175    0.5000000000          0.3043
C88        C    1.0000000000    0.5000000000    0.4224253175          0.3092
C89        C    0.9224253175    0.5000000000    0.5000000000          0.2988
C90        C    1.0000000000    0.5775746825    0.5000000000          0.3026
C91        C    1.0775746825    0.5000000000    0.5000000000          0.3139
C92        C    1.0000000000    0.5000000000    0.5775746825          0.3044
Zn93      Zn    0.4757238099    0.9757238099   -0.0242761901          1.4972
Zn94      Zn    0.4757238099    1.0242761901    0.0242761901          1.4936
Zn95      Zn    0.5242761901    0.9757238099    0.0242761901          1.4911
Zn96      Zn    0.5242761901    1.0242761901   -0.0242761901          1.4948
O97        O    0.5000000000    1.0000000000    0.0000000000         -2.3083
O98        O    0.4351177030    0.9821587757   -0.0178412243         -1.2146
O99        O    0.4821587757    1.0178412243    0.0648822970         -1.2128
O100       O    0.5178412243    0.9351177030    0.0178412243         -1.2079
O101       O    0.4351177030    1.0178412243    0.0178412243         -1.2147
O102       O    0.4821587757    0.9351177030   -0.0178412243         -1.2107
O103       O    0.5178412243    0.9821587757    0.0648822970         -1.2166
O104       O    0.5648822970    1.0178412243   -0.0178412243         -1.2105
O105       O    0.4821587757    1.0648822970    0.0178412243          -1.218
O106       O    0.5648822970    0.9821587757    0.0178412243         -1.2119
O107       O    0.5178412243    1.0648822970   -0.0178412243         -1.2166
O108       O    0.5178412243    1.0178412243   -0.0648822970         -1.2157
O109       O    0.4821587757    0.9821587757   -0.0648822970         -1.2136
C110       C    0.4224253175    1.0000000000    0.0000000000          0.3043
C111       C    0.5000000000    1.0000000000    0.0775746825          0.3092
C112       C    0.5000000000    0.9224253175    0.0000000000          0.2988
C113       C    0.5775746825    1.0000000000    0.0000000000          0.3026
C114       C    0.5000000000    1.0775746825    0.0000000000          0.3139
C115       C    0.5000000000    1.0000000000   -0.0775746825          0.3044
Zn116     Zn    0.4757238099    1.0242761901    0.5242761901          1.4972
Zn117     Zn    0.4757238099    0.9757238099    0.4757238099          1.4936
Zn118     Zn    0.5242761901    1.0242761901    0.4757238099          1.4911
Zn119     Zn    0.5242761901    0.9757238099    0.5242761901          1.4948
O120       O    0.5000000000    1.0000000000    0.5000000000         -2.3083
O121       O    0.4351177030    1.0178412243    0.5178412243         -1.2146
O122       O    0.4821587757    0.9821587757    0.4351177030         -1.2128
O123       O    0.5178412243    1.0648822970    0.4821587757         -1.2079
O124       O    0.4351177030    0.9821587757    0.4821587757         -1.2147
O125       O    0.4821587757    1.0648822970    0.5178412243         -1.2107
O126       O    0.5178412243    1.0178412243    0.4351177030         -1.2166
O127       O    0.5648822970    0.9821587757    0.5178412243         -1.2105
O128       O    0.4821587757    0.9351177030    0.4821587757          -1.218
O129       O    0.5648822970    1.0178412243    0.4821587757         -1.2119
O130       O    0.5178412243    0.9351177030    0.5178412243         -1.2166
O131       O    0.5178412243    0.9821587757    0.5648822970         -1.2157
O132       O    0.4821587757    1.0178412243    0.5648822970         -1.2136
C133       C    0.4224253175    1.0000000000    0.5000000000          0.3043
C134       C    0.5000000000    1.0000000000    0.4224253175          0.3092
C135       C    0.5000000000    1.0775746825    0.5000000000          0.2988
C136       C    0.5775746825    1.0000000000    0.5000000000          0.3026
C137       C    0.5000000000    0.9224253175    0.5000000000          0.3139
C138       C    0.5000000000    1.0000000000    0.5775746825          0.3044
Zn139     Zn    0.4757238099    0.5242761901   -0.0242761901          1.4972
Zn140     Zn    0.4757238099    0.4757238099    0.0242761901          1.4936
Zn141     Zn    0.5242761901    0.4757238099   -0.0242761901          1.4911
Zn142     Zn    0.5242761901    0.5242761901    0.0242761901          1.4948
O143       O    0.5000000000    0.5000000000    0.0000000000         -2.3083
O144       O    0.4351177030    0.5178412243   -0.0178412243         -1.2146
O145       O    0.4821587757    0.4351177030    0.0178412243         -1.2128
O146       O    0.5178412243    0.4821587757   -0.0648822970         -1.2079
O147       O    0.4351177030    0.4821587757    0.0178412243         -1.2147
O148       O    0.4821587757    0.5178412243   -0.0648822970         -1.2107
O149       O    0.5178412243    0.4351177030   -0.0178412243         -1.2166
O150       O    0.5648822970    0.5178412243    0.0178412243         -1.2105
O151       O    0.4821587757    0.4821587757    0.0648822970          -1.218
O152       O    0.5648822970    0.4821587757   -0.0178412243         -1.2119
O153       O    0.5178412243    0.5178412243    0.0648822970         -1.2166
O154       O    0.5178412243    0.5648822970    0.0178412243         -1.2157
O155       O    0.4821587757    0.5648822970   -0.0178412243         -1.2136
C156       C    0.4224253175    0.5000000000    0.0000000000          0.3043
C157       C    0.5000000000    0.4224253175    0.0000000000          0.3092
C158       C    0.5000000000    0.5000000000   -0.0775746825          0.2988
C159       C    0.5775746825    0.5000000000    0.0000000000          0.3026
C160       C    0.5000000000    0.5000000000    0.0775746825          0.3139
C161       C    0.5000000000    0.5775746825    0.0000000000          0.3044
Zn162     Zn    0.4757238099    0.4757238099    0.4757238099          1.4972
Zn163     Zn    0.4757238099    0.5242761901    0.5242761901          1.4936
Zn164     Zn    0.5242761901    0.4757238099    0.5242761901          1.4911
Zn165     Zn    0.5242761901    0.5242761901    0.4757238099          1.4948
O166       O    0.5000000000    0.5000000000    0.5000000000         -2.3083
O167       O    0.4351177030    0.4821587757    0.4821587757         -1.2146
O168       O    0.4821587757    0.5178412243    0.5648822970         -1.2128
O169       O    0.5178412243    0.4351177030    0.5178412243         -1.2079
O170       O    0.4351177030    0.5178412243    0.5178412243         -1.2147
O171       O    0.4821587757    0.4351177030    0.4821587757         -1.2107
O172       O    0.5178412243    0.4821587757    0.5648822970         -1.2166
O173       O    0.5648822970    0.5178412243    0.4821587757         -1.2105
O174       O    0.4821587757    0.5648822970    0.5178412243          -1.218
O175       O    0.5648822970    0.4821587757    0.5178412243         -1.2119
O176       O    0.5178412243    0.5648822970    0.4821587757         -1.2166
O177       O    0.5178412243    0.5178412243    0.4351177030         -1.2157
O178       O    0.4821587757    0.4821587757    0.4351177030         -1.2136
C179       C    0.4224253175    0.5000000000    0.5000000000          0.3043
C180       C    0.5000000000    0.5000000000    0.5775746825          0.3092
C181       C    0.5000000000    0.4224253175    0.5000000000          0.2988
C182       C    0.5775746825    0.5000000000    0.5000000000          0.3026
C183       C    0.5000000000    0.5775746825    0.5000000000          0.3139
C184       C    0.5000000000    0.5000000000    0.4224253175          0.3044
C967       C    0.5000000000    0.5000000000   -0.1109187182          0.5178
C968       C    0.5059459045    0.4735757154   -0.1218761204          0.5135
C969       C    0.5107519326    0.4698773519   -0.1505014972          0.5132
C970       C    0.5122974522    0.4924702953   -0.1692147731           0.515
C971       C    0.5112392136    0.5186811103   -0.1564905763          0.5149
C972       C    0.5010722318    0.5215474932   -0.1297616843            0.52
C973       C    0.5112369265    0.4902023371   -0.1988657026          0.5199
H974       H    0.5116646031    0.4476559102   -0.1580788535          0.5128
H975       H    0.5034323365    0.4543413322   -0.1085041767          0.5133
O976       O    0.4743689699    0.5286324712   -0.1336606840         -0.4565
H977       H    0.5100688452    0.5385197184   -0.1686470452          0.5181
C978       C    0.5066786583    0.4649539873   -0.2129074805           0.525
C979       C    0.5024419614    0.4636666866   -0.2417033908         -0.4675
C980       C    0.5025928392    0.4873333716   -0.2584767423         -0.4647
C981       C    0.5075045710    0.5123391510   -0.2449172351          0.5299
C982       C    0.5119034653    0.5136188045   -0.2164470647          0.5224
C983       C    0.4962322169    0.4856518222   -0.2913689165         -0.4549
H984       H    0.4980439997    0.4426461304   -0.2515017624          -0.463
H985       H    0.5050586981    0.4445653245   -0.2013841998          0.5242
H986       H    0.5154718543    0.5354611553   -0.2089795166          0.5189
H987       H    0.5073809683    0.5326726315   -0.2566602421         -0.4678
H988       H    0.4725755875    0.5074928190   -0.1389168910         -0.4549
C989       C    0.5028861054    0.5128466692   -0.3099617969         -0.4573
C990       C    0.5157697225    0.5015591315   -0.3384906266         -0.4647
N991       N    0.5282584290    0.4732599080   -0.3306353157          0.5229
N992       N    0.5120212495    0.4618002877   -0.3058748323          -0.467
N993       N    0.4939451880    0.4983655621   -0.3619463654          -0.443
H994       H    0.4981457718    0.4470107575   -0.3145510587         -0.4544
H995       H    0.5487513799    0.4753911658   -0.3229548458          0.5044
H996       H    0.5195959280    0.5261723993   -0.2999589243          0.5275
H997       H    0.5330545592    0.5160170277   -0.3462792641          0.5221
H998       H    0.4836741953    0.5262795634   -0.3133305483         -0.4401
H999       H    0.4730958251    0.4811076999   -0.2939797324         -0.4349
N1000      N    0.5000000000    0.5000000000   -0.3890812818         -0.4444
C933       C    0.5000000000    0.5000000000    0.3890812818          0.5178
C934       C    0.5262789156    0.5065585967    0.3781238796          0.5135
C935       C    0.5298645513    0.5114493038    0.3494985028          0.5132
C936       C    0.5072417844    0.5124691757    0.3307852269           0.515
C937       C    0.4810626546    0.5108018866    0.3435094237          0.5149
C938       C    0.4784334035    0.5005710161    0.3702383157            0.52
C939       C    0.5095337842    0.5114616610    0.3011342974          0.5199
H940       H    0.5520587701    0.5128783212    0.3419211465          0.5128
H941       H    0.5455665348    0.5044928599    0.3914958233          0.5133
O942       O    0.4719711250    0.4737102628    0.3663393160         -0.4565
H943       H    0.4612566162    0.5091706358    0.3313529548          0.5181
C944       C    0.5348812789    0.5074915864    0.2870925195           0.525
C945       C    0.5362667244    0.5032859610    0.2582966092         -0.4675
C946       C    0.5126029280    0.5028866062    0.2415232577         -0.4647
C947       C    0.4874897211    0.5072156881    0.2550827649          0.5299
C948       C    0.4861081500    0.5115836448    0.2835529353          0.5224
C949       C    0.5144318917    0.4965667948    0.2086310835         -0.4549
H950       H    0.5573838413    0.4993778638    0.2484982376          -0.463
H951       H    0.5553020915    0.5063460499    0.2986158002          0.5242
H952       H    0.4641887462    0.5146432887    0.2910204834          0.5189
H953       H    0.4671646094    0.5066194157    0.2433397579         -0.4678
H954       H    0.4931467558    0.4724088098    0.3610831090         -0.4549
C955       C    0.4870897080    0.5025866722    0.1900382031         -0.4573
C956       C    0.4980746828    0.5157292146    0.1615093734         -0.4647
N957       N    0.5260759267    0.5288724329    0.1693646843          0.5229
N958       N    0.5379099241    0.5129060494    0.1941251677          -0.467
N959       N    0.5017747556    0.4939848210    0.1380536346          -0.443
H960       H    0.5530180278    0.4993781416    0.1854489413         -0.4544
H961       H    0.5234688345    0.5493102989    0.1770451542          0.5044
H962       H    0.4733791172    0.5189821885    0.2000410757          0.5275
H963       H    0.4832188644    0.5326732697    0.1537207359          0.5221
H964       H    0.4741070735    0.4830676727    0.1866694517         -0.4401
H965       H    0.5195126498    0.4735422954    0.2060202676         -0.4349
N966       N    0.5000000000    0.5000000000    0.1109187182         -0.4444
C899       C    0.5000000000    0.8890812818    0.5000000000          0.5178
C900       C    0.5266767281    0.8781238796    0.5046849517          0.5135
C901       C    0.5319402369    0.8494985028    0.5016730961          0.5132
C902       C    0.5116835473    0.8307852269    0.4915490529           0.515
C903       C    0.4870854484    0.8435094237    0.4824353150          0.5149
C904       C    0.4805259838    0.8702383157    0.4907152362            0.52
C905       C    0.5133684383    0.8011342974    0.4934009416          0.5199
H906       H    0.5528003901    0.8419211465    0.5093853879          0.5128
H907       H    0.5434610359    0.8914958233    0.5144094843          0.5133
O908       O    0.4637070614    0.8663393160    0.5126329222         -0.4565
H909       H    0.4683252737    0.8313529548    0.4758781828          0.5181
C910       C    0.5349160558    0.7870925195    0.5073277918           0.525
C911       C    0.5344731347    0.7582966092    0.5117335341         -0.4675
C912       C    0.5126885611    0.7415232577    0.5024832857         -0.4647
C913       C    0.4915008922    0.7550827649    0.4883235965          0.5299
C914       C    0.4920133124    0.7835529353    0.4837711016          0.5224
C915       C    0.5117918526    0.7086310835    0.5090010337         -0.4549
H916       H    0.5521805145    0.7484982376    0.5238848529          -0.463
H917       H    0.5531096945    0.7986158002    0.5166719531          0.5242
H918       H    0.4732281132    0.7910204834    0.4720690515          0.5189
H919       H    0.4726869607    0.7433397579    0.4806098627         -0.4678
H920       H    0.4825270472    0.8610831090    0.5224262493         -0.4549
C921       C    0.4892545116    0.6900382031    0.4923907298         -0.4573
C922       C    0.5046319267    0.6615093734    0.4848454530         -0.4647
N923       N    0.5355578816    0.6693646843    0.4842136645          0.5229
N924       N    0.5398834402    0.6941251677    0.5036110467          -0.467
N925       N    0.4991775393    0.6380536346    0.5062173703          -0.443
H926       H    0.5481914553    0.6854489413    0.5221106676         -0.4544
H927       H    0.5414800849    0.6770451542    0.4644796633          0.5044
H928       H    0.4833886212    0.7000410757    0.4718387327          0.5275
H929       H    0.4979424921    0.6537207359    0.4633269073          0.5221
H930       H    0.4694608736    0.6866694517    0.5049506672         -0.4401
H931       H    0.5070789013    0.7060202676    0.5321036258         -0.4349
N932       N    0.5000000000    0.6109187182    0.5000000000         -0.4444
C865       C    0.5000000000    1.1109187182    0.5000000000          0.5178
C866       C    0.5270525043    1.1218761204    0.4986738753          0.5135
C867       C    0.5318999335    1.1505014972    0.5023178056          0.5132
C868       C    0.5105400931    1.1692147731    0.5098402348           0.515
C869       C    0.4849984683    1.1564905763    0.5158195402          0.5149
C870       C    0.4795212643    1.1297616843    0.5067871592            0.52
C871       C    0.5124425027    1.1988657026    0.5082126025          0.5199
H872       H    0.5535581768    1.1580788535    0.4972635070          0.5128
H873       H    0.5449172419    1.1085041767    0.4911153916          0.5133
O874       O    0.4655629418    1.1336606840    0.4829454658         -0.4565
H875       H    0.4655677191    1.1686470452    0.5199892065          0.5181
C876       C    0.5355568267    1.2129074805    0.4970777470           0.525
C877       C    0.5356660504    1.2417033908    0.4926511440         -0.4675
C878       C    0.5128990449    1.2584767423    0.4991162968         -0.4647
C879       C    0.4901128691    1.2449172351    0.5105270070          0.5299
C880       C    0.4900543267    1.2164470647    0.5151078756          0.5224
C881       C    0.5128210460    1.2913689165    0.4925376160         -0.4549
H882       H    0.5547489082    1.2515017624    0.4827997285          -0.463
H883       H    0.5547725508    1.2013841998    0.4900721930          0.5242
H884       H    0.4699579933    1.2089795166    0.5243792871          0.5189
H885       H    0.4704847370    1.2566602421    0.5158375752         -0.4678
H886       H    0.4854560762    1.1389168910    0.4755722491         -0.4549
C887       C    0.4883905036    1.3099617969    0.5062117716         -0.4573
C888       C    0.5027084989    1.3384906266    0.5156134260         -0.4647
N889       N    0.5333149942    1.3306353157    0.5200918516          0.5229
N890       N    0.5400226492    1.3058748323    0.5013841992          -0.467
N891       N    0.4999582614    1.3619463654    0.4937286052          -0.443
H892       H    0.5505699469    1.3145510587    0.4840632985         -0.4544
H893       H    0.5367333934    1.3229548458    0.5404097708          0.5044
H894       H    0.4800107119    1.2999589243    0.5258732148          0.5275
H895       H    0.4933911996    1.3462792641    0.5361313274          0.5221
H896       H    0.4703152000    1.3133305483    0.4912844968         -0.4401
H897       H    0.5110220124    1.2939797324    0.4690279339         -0.4349
N898       N    0.5000000000    1.3890812818    0.5000000000         -0.4444
C831       C    0.5000000000    0.8890812818    0.0000000000          0.5178
C832       C    0.5129684605    0.8781238796   -0.0237784698          0.5135
C833       C    0.5117976222    0.8494985028   -0.0297286746          0.5132
C834       C    0.4957282797    0.8307852269   -0.0137722979           0.515
C835       C    0.4792281170    0.8435094237    0.0066206253          0.5149
C836       C    0.4849761278    0.8702383157    0.0154831330            0.52
C837       C    0.4980216738    0.8011342974   -0.0147766349          0.5199
H838       H    0.5257747591    0.8419211465   -0.0470279544          0.5128
H839       H    0.5275490282    0.8914958233   -0.0365724750          0.5133
O840       O    0.5003657368    0.8663393160    0.0384270003         -0.4565
H841       H    0.4670169354    0.8313529548    0.0222995021          0.5181
C842       C    0.5181069575    0.7870925195   -0.0307402924           0.525
C843       C    0.5221398154    0.7582966092   -0.0289119596         -0.4675
C844       C    0.5064098851    0.7415232577   -0.0112285200         -0.4647
C845       C    0.4862190723    0.7550827649    0.0043196370          0.5299
C846       C    0.4820693863    0.7835529353    0.0023785316          0.5224
C847       C    0.5122987938    0.7086310835   -0.0082949422         -0.4549
H848       H    0.5393149184    0.7484982376   -0.0418046586          -0.463
H849       H    0.5327777302    0.7986158002   -0.0449912666          0.5242
H850       H    0.4649753544    0.7910204834    0.0164361189          0.5189
H851       H    0.4728948139    0.7433397579    0.0196796450         -0.4678
H852       H    0.5156623614    0.8610831090    0.0237261706         -0.4549
C853       C    0.4893544700    0.6900382031    0.0077484969         -0.4573
C854       C    0.4871219311    0.6615093734   -0.0092341962         -0.4647
N855       N    0.4964113580    0.6693646843   -0.0387387788          0.5229
N856       N    0.5161735503    0.6941251677   -0.0366352935          -0.467
N857       N    0.5056280380    0.6380536346    0.0027671869          -0.443
H858       H    0.5363584300    0.6854489413   -0.0385922603         -0.4544
H859       H    0.4796067653    0.6770451542   -0.0506597251          0.5044
H860       H    0.4680057762    0.7000410757    0.0067353192          0.5275
H861       H    0.4645941108    0.6537207359   -0.0097760970          0.5221
H862       H    0.4949264256    0.6866694517    0.0305189481         -0.4401
H863       H    0.5326817901    0.7060202676    0.0035572786         -0.4349
N864       N    0.5000000000    0.6109187182    0.0000000000         -0.4444
C797       C    0.5000000000    1.1109187182    0.0000000000          0.5178
C798       C    0.5182707041    1.1218761204    0.0199944484          0.5135
C799       C    0.5185543875    1.1505014972    0.0260521148          0.5132
C800       C    0.4991400704    1.1692147731    0.0143938982           0.515
C801       C    0.4782481310    1.1564905763   -0.0014696940          0.5149
C802       C    0.4817139079    1.1297616843   -0.0114482742            0.52
C803       C    0.5016069310    1.1988657026    0.0148216223          0.5199
H804       H    0.5362576367    1.1580788535    0.0395139277          0.5128
H805       H    0.5354842613    1.1085041767    0.0289372094          0.5133
O806       O    0.4911803995    1.1336606840   -0.0374029780         -0.4565
H807       H    0.4626466485    1.1686470452   -0.0137796038          0.5181
C808       C    0.5249227829    1.2129074805    0.0255280704           0.525
C809       C    0.5284024774    1.2417033908    0.0227897370         -0.4675
C810       C    0.5089054060    1.2584767423    0.0093733683         -0.4647
C811       C    0.4855862810    1.2449172351   -0.0009044001          0.5299
C812       C    0.4820200626    1.2164470647    0.0019713381          0.5224
C813       C    0.5139235863    1.2913689165    0.0051186073         -0.4549
H814       H    0.5481590973    1.2515017624    0.0312088711          -0.463
H815       H    0.5425717995    1.2013841998    0.0358641264          0.5242
H816       H    0.4620640425    1.2089795166   -0.0075983510          0.5189
H817       H    0.4689800455    1.2566602421   -0.0126389068         -0.4678
H818       H    0.5095445744    1.1389168910   -0.0267795040         -0.4549
C819       C    0.4878123319    1.3099617969   -0.0049826959         -0.4573
C820       C    0.4896991166    1.3384906266    0.0120418786         -0.4647
N821       N    0.5057643444    1.3306353157    0.0384752345          0.5229
N822       N    0.5244527712    1.3058748323    0.0317141993          -0.467
N823       N    0.5048045814    1.3619463654   -0.0040308972          -0.443
H824       H    0.5445211270    1.3145510587    0.0287952640         -0.4544
H825       H    0.4922919795    1.3229548458    0.0540636494          0.5044
H826       H    0.4673229668    1.2999589243    0.0010983545          0.5275
H827       H    0.4679522053    1.3462792641    0.0179468080          0.5221
H828       H    0.4877865103    1.3133305483   -0.0284249542         -0.4401
H829       H    0.5308872727    1.2939797324   -0.0112574428         -0.4349
N830       N    0.5000000000    1.3890812818    0.0000000000         -0.4444
C763       C    0.5000000000    1.0000000000   -0.1109187182          0.5178
C764       C    0.4940540955    1.0264242846   -0.1218761204          0.5135
C765       C    0.4892480674    1.0301226481   -0.1505014972          0.5132
C766       C    0.4877025478    1.0075297047   -0.1692147731           0.515
C767       C    0.4887607864    0.9813188897   -0.1564905763          0.5149
C768       C    0.4989277682    0.9784525068   -0.1297616843            0.52
C769       C    0.4887630735    1.0097976629   -0.1988657026          0.5199
H770       H    0.4883353969    1.0523440898   -0.1580788535          0.5128
H771       H    0.4965676635    1.0456586678   -0.1085041767          0.5133
O772       O    0.5256310301    0.9713675288   -0.1336606840         -0.4565
H773       H    0.4899311548    0.9614802816   -0.1686470452          0.5181
C774       C    0.4933213417    1.0350460127   -0.2129074805           0.525
C775       C    0.4975580386    1.0363333134   -0.2417033908         -0.4675
C776       C    0.4974071608    1.0126666284   -0.2584767423         -0.4647
C777       C    0.4924954290    0.9876608490   -0.2449172351          0.5299
C778       C    0.4880965347    0.9863811955   -0.2164470647          0.5224
C779       C    0.5037677831    1.0143481778   -0.2913689165         -0.4549
H780       H    0.5019560003    1.0573538696   -0.2515017624          -0.463
H781       H    0.4949413019    1.0554346755   -0.2013841998          0.5242
H782       H    0.4845281457    0.9645388447   -0.2089795166          0.5189
H783       H    0.4926190317    0.9673273685   -0.2566602421         -0.4678
H784       H    0.5274244125    0.9925071810   -0.1389168910         -0.4549
C785       C    0.4971138946    0.9871533308   -0.3099617969         -0.4573
C786       C    0.4842302775    0.9984408685   -0.3384906266         -0.4647
N787       N    0.4717415710    1.0267400920   -0.3306353157          0.5229
N788       N    0.4879787505    1.0381997123   -0.3058748323          -0.467
N789       N    0.5060548120    1.0016344379   -0.3619463654          -0.443
H790       H    0.5018542282    1.0529892425   -0.3145510587         -0.4544
H791       H    0.4512486201    1.0246088342   -0.3229548458          0.5044
H792       H    0.4804040720    0.9738276007   -0.2999589243          0.5275
H793       H    0.4669454408    0.9839829723   -0.3462792641          0.5221
H794       H    0.5163258047    0.9737204366   -0.3133305483         -0.4401
H795       H    0.5269041749    1.0188923001   -0.2939797324         -0.4349
N796       N    0.5000000000    1.0000000000   -0.3890812818         -0.4444
C729       C    0.5000000000    1.0000000000    0.3890812818          0.5178
C730       C    0.5159537274    0.9781122140    0.3781238796          0.5135
C731       C    0.5218334486    0.9766273984    0.3494985028          0.5132
C732       C    0.5142766811    0.9979751147    0.3307852269           0.515
C733       C    0.5028932115    1.0216086356    0.3435094237          0.5149
C734       C    0.4924241996    1.0202002820    0.3702383157            0.52
C735       C    0.5142043790    0.9954724917    0.3011342974          0.5199
H736       H    0.5314985402    0.9565971353    0.3419211465          0.5128
H737       H    0.5212879113    0.9594621200    0.3914958233          0.5133
O738       O    0.4651038416    1.0160942923    0.3663393160         -0.4565
H739       H    0.4939382150    1.0393497790    0.3313529548          0.5181
C740       C    0.5200511863    0.9704910621    0.2870925195           0.525
C741       C    0.5166745136    0.9676266555    0.2582966092         -0.4675
C742       C    0.5074113236    0.9894057293    0.2415232577         -0.4647
C743       C    0.5019852550    1.0143049640    0.2550827649          0.5299
C744       C    0.5055138155    1.0172267861    0.2835529353          0.5224
C745       C    0.5022421212    0.9853357820    0.2086310835         -0.4549
H746       H    0.5209889336    0.9465887937    0.2484982376          -0.463
H747       H    0.5266639828    0.9511366631    0.2986158002          0.5242
H748       H    0.5001116289    1.0386892665    0.2910204834          0.5189
H749       H    0.4937942958    1.0329160869    0.2433397579         -0.4678
H750       H    0.4718558196    0.9959818108    0.3610831090         -0.4549
C751       C    0.4975452332    1.0129360208    0.1900382031         -0.4573
C752       C    0.5138526521    1.0076953926    0.1615093734         -0.4647
N753       N    0.5365555943    0.9866861027    0.1693646843          0.5229
N754       N    0.5262069473    0.9697192409    0.1941251677          -0.467
N755       N    0.4950927274    0.9960947714    0.1380536346          -0.443
H756       H    0.5193484714    0.9506346818    0.1854489413         -0.4544
H757       H    0.5545155184    0.9967828557    0.1770451542          0.5044
H758       H    0.5075863121    1.0318031877    0.2000410757          0.5275
H759       H    0.5239716710    1.0278299848    0.1537207359          0.5221
H760       H    0.4745780324    1.0176315318    0.1866694517         -0.4401
H761       H    0.4828148033    0.9719746071    0.2060202676         -0.4349
N762       N    0.5000000000    1.0000000000    0.1109187182         -0.4444
C695       C    0.6109187182    0.5000000000    0.5000000000          0.5178
C696       C    0.6218761204    0.4868442896    0.5236753855          0.5135
C697       C    0.6505014972    0.4879681339    0.5296346450          0.5132
C698       C    0.6692147731    0.5041628997    0.5138055804           0.515
C699       C    0.6564905763    0.5208234845    0.4935435074          0.5149
C700       C    0.6297616843    0.5151455934    0.4846359138            0.52
C701       C    0.6988657026    0.5018616511    0.5147917872          0.5199
H702       H    0.6580788535    0.4738549107    0.5468230820          0.5128
H703       H    0.6085041767    0.4721632088    0.5363539261          0.5133
O704       O    0.6336606840    0.4999375309    0.4615713100         -0.4565
H705       H    0.6686470452    0.5331580196    0.4779614864          0.5181
C706       C    0.7129074805    0.4816510117    0.5305964396           0.525
C707       C    0.7417033908    0.4776327081    0.5287363374         -0.4675
C708       C    0.7584767423    0.4935017018    0.5111775852         -0.4647
C709       C    0.7449172351    0.5138145881    0.4957892531          0.5299
C710       C    0.7164470647    0.5179488262    0.4977630464          0.5224
C711       C    0.7913689165    0.4876361276    0.5081976249         -0.4549
H712       H    0.7515017624    0.4603563940    0.5414930933          -0.463
H713       H    0.7013841998    0.4668682306    0.5447311919          0.5242
H714       H    0.7089795166    0.5351532647    0.4838407987          0.5189
H715       H    0.7566602421    0.5272596489    0.4805348752         -0.4678
H716       H    0.6389168910    0.4845253673    0.4761509648         -0.4549
C717       C    0.8099617969    0.5107063477    0.4923357563         -0.4573
C718       C    0.8384906266    0.5128047939    0.5093355391         -0.4647
N719       N    0.8306353157    0.5032828135    0.5387658931          0.5229
N720       N    0.8058748323    0.4835378368    0.5365065151          -0.467
N721       N    0.8619463654    0.4943939752    0.4971884842          -0.443
H722       H    0.8145510587    0.4633381418    0.5383041269         -0.4544
H723       H    0.8229548458    0.5199928058    0.5508190858          0.5044
H724       H    0.7999589243    0.5320463809    0.4935173809          0.5275
H725       H    0.8462792641    0.5353276362    0.5100552070          0.5221
H726       H    0.8133305483    0.5053142643    0.4695220417         -0.4401
H727       H    0.7939797324    0.4673473008    0.4961849156         -0.4349
N728       N    0.8890812818    0.5000000000    0.5000000000         -0.4444
C661       C    1.1109187182    0.5000000000    0.5000000000          0.5178
C662       C    1.1218761204    0.5101018310    0.4748693493          0.5135
C663       C    1.1505014972    0.5082438984    0.4690966649          0.5132
C664       C    1.1692147731    0.4941486296    0.4868210300           0.515
C665       C    1.1564905763    0.4801437738    0.5090018935          0.5149
C666       C    1.1297616843    0.4868877580    0.5171322285            0.52
C667       C    1.1988657026    0.4963089927    0.4855556524          0.5199
H668       H    1.1580788535    0.5201044074    0.4502830059          0.5128
H669       H    1.1085041767    0.5230879515    0.4604596234          0.5133
O670       O    1.1336606840    0.5048523277    0.5381211625         -0.4565
H671       H    1.1686470452    0.4698478309    0.5259999432          0.5181
C672       C    1.2129074805    0.5143918547    0.4673549084           0.525
C673       C    1.2417033908    0.5186106878    0.4686995985         -0.4675
C674       C    1.2584767423    0.5050542651    0.4880995507         -0.4647
C675       C    1.2449172351    0.4868180570    0.5058999672          0.5299
C676       C    1.2164470647    0.4824700216    0.5044569247          0.5224
C677       C    1.2913689165    0.5112455567    0.4903250917         -0.4549
H678       H    1.2515017624    0.5341620490    0.4538887573          -0.463
H679       H    1.2013841998    0.5272973574    0.4514876516          0.5242
H680       H    1.2089795166    0.4671352602    0.5204152072          0.5189
H681       H    1.2566602421    0.4753794080    0.5227113625         -0.4678
H682       H    1.1389168910    0.5183268443    0.5217340175         -0.4549
C683       C    1.3099617969    0.4903325506    0.5089390680         -0.4573
C684       C    1.3384906266    0.4861313564    0.4923334647         -0.4647
N685       N    1.3306353157    0.4919104121    0.4619456980          0.5229
N686       N    1.3058748323    0.5117830235    0.4617261340          -0.467
N687       N    1.3619463654    0.5059127691    0.5020907646          -0.443
H688       H    1.3145510587    0.5316010806    0.4574245413         -0.4544
H689       H    1.3229548458    0.4738282600    0.4520695108          0.5044
H690       H    1.2999589243    0.4690116718    0.5104268114          0.5275
H691       H    1.3462792641    0.4636944798    0.4944270053          0.5221
H692       H    1.3133305483    0.4985264302    0.5309026850         -0.4401
H693       H    1.2939797324    0.5328735821    0.4997149900         -0.4349
N694       N    1.3890812818    0.5000000000    0.5000000000         -0.4444
C627       C    0.6109187182    0.5000000000    0.0000000000          0.5178
C628       C    0.6218761204    0.4919015521    0.0258459230          0.5135
C629       C    0.6505014972    0.4942067886    0.0314549946          0.5132
C630       C    0.6692147731    0.5068675950    0.0126791137           0.515
C631       C    0.6564905763    0.5190885260   -0.0105324252          0.5149
C632       C    0.6297616843    0.5117272817   -0.0181084237            0.52
C633       C    0.6988657026    0.5048132005    0.0141101316          0.5199
H634       H    0.6580788535    0.4838593362    0.0511414281          0.5128
H635       H    0.6085041767    0.4800863438    0.0412303430          0.5133
O636       O    0.6336606840    0.4921709296   -0.0376227826         -0.4565
H637       H    0.6686470452    0.5280187249   -0.0282860637          0.5181
C638       C    0.7129074805    0.4882144852    0.0336738642           0.525
C639       C    0.7417033908    0.4839031341    0.0326644110         -0.4675
C640       C    0.7584767423    0.4958952581    0.0122603990         -0.4647
C641       C    0.7449172351    0.5126782637   -0.0069162753          0.5299
C642       C    0.7164470647    0.5171261373   -0.0058189126          0.5224
C643       C    0.7913689165    0.4895484037    0.0105276080         -0.4549
H644       H    0.7515017624    0.4695620760    0.0486500264          -0.463
H645       H    0.7013841998    0.4765940315    0.0505049929          0.5242
H646       H    0.7089795166    0.5311612136   -0.0229314320          0.5189
H647       H    0.7566602421    0.5227622929   -0.0245735135         -0.4678
H648       H    0.6389168910    0.4800240173   -0.0202287135         -0.4549
C649       C    0.8099617969    0.5089361042   -0.0096701890         -0.4573
C650       C    0.8384906266    0.5144275311    0.0065544936         -0.4647
N651       N    0.8306353157    0.5110510991    0.0373020716          0.5229
N652       N    0.8058748323    0.4912570104    0.0390805398          -0.467
N653       N    0.8619463654    0.4939413862   -0.0016202884          -0.443
H654       H    0.8145510587    0.4718376611    0.0449241656         -0.4544
H655       H    0.8229548458    0.5298525543    0.0457287302          0.5044
H656       H    0.7999589243    0.5300744680   -0.0128265839          0.5275
H657       H    0.8462792641    0.5366309084    0.0027065876          0.5221
H658       H    0.8133305483    0.4990438150   -0.0309230183         -0.4401
H659       H    0.7939797324    0.4672501748    0.0028640149         -0.4349
N660       N    0.8890812818    0.5000000000    0.0000000000         -0.4444
C593       C    1.1109187182    0.5000000000    0.0000000000          0.5178
C594       C    1.1218761204    0.5065054324   -0.0262921270          0.5135
C595       C    1.1505014972    0.5038620588   -0.0317499998          0.5132
C596       C    1.1692147731    0.4923711478   -0.0122361921           0.515
C597       C    1.1564905763    0.4815900913    0.0116781448          0.5149
C598       C    1.1297616843    0.4894001237    0.0187906032            0.52
C599       C    1.1988657026    0.4943343456   -0.0137899628          0.5199
H600       H    1.1580788535    0.5129883411   -0.0520314299          0.5128
H601       H    1.1085041767    0.5173593733   -0.0423691756          0.5133
O602       O    1.1336606840    0.5101113602    0.0370746343         -0.4565
H603       H    1.1686470452    0.4737604204    0.0299438610          0.5181
C604       C    1.2129074805    0.5097077212   -0.0343305642           0.525
C605       C    1.2417033908    0.5140726580   -0.0335862045         -0.4675
C606       C    1.2584767423    0.5033485805   -0.0124881263         -0.4647
C607       C    1.2449172351    0.4877676282    0.0076773898          0.5299
C608       C    1.2164470647    0.4832610567    0.0068536195          0.5224
C609       C    1.2913689165    0.5097893838   -0.0111460469         -0.4549
H610       H    1.2515017624    0.5274110338   -0.0504175318          -0.463
H611       H    1.2013841998    0.5202789484   -0.0518397331          0.5242
H612       H    1.2089795166    0.4702968900    0.0247910683          0.5189
H613       H    1.2566602421    0.4787803941    0.0259173275         -0.4678
H614       H    1.1389168910    0.5211736961    0.0189714345         -0.4549
C615       C    1.3099617969    0.4916709355    0.0101977055         -0.4573
C616       C    1.3384906266    0.4851992252   -0.0056614578         -0.4647
N617       N    1.3306353157    0.4866922009   -0.0365578147          0.5229
N618       N    1.3058748323    0.5063407905   -0.0395414066          -0.467
N619       N    1.3619463654    0.5061462320    0.0012473840          -0.443
H620       H    1.3145510587    0.5253671594   -0.0465596951         -0.4544
H621       H    1.3229548458    0.4674113639   -0.0438209147          0.5044
H622       H    1.2999589243    0.4707647014    0.0146387225          0.5275
H623       H    1.3462792641    0.4632721815   -0.0004651999          0.5221
H624       H    1.3133305483    0.5028422703    0.0308069611         -0.4401
H625       H    1.2939797324    0.5325138862   -0.0048580691         -0.4349
N626       N    1.3890812818    0.5000000000    0.0000000000         -0.4444
C559       C    1.0000000000    0.5000000000   -0.1109187182          0.5178
C560       C    0.9737210844    0.4934414033   -0.1218761204          0.5135
C561       C    0.9701354487    0.4885506962   -0.1505014972          0.5132
C562       C    0.9927582156    0.4875308243   -0.1692147731           0.515
C563       C    1.0189373454    0.4891981134   -0.1564905763          0.5149
C564       C    1.0215665965    0.4994289839   -0.1297616843            0.52
C565       C    0.9904662158    0.4885383390   -0.1988657026          0.5199
H566       H    0.9479412299    0.4871216788   -0.1580788535          0.5128
H567       H    0.9544334652    0.4955071401   -0.1085041767          0.5133
O568       O    1.0280288750    0.5262897372   -0.1336606840         -0.4565
H569       H    1.0387433838    0.4908293642   -0.1686470452          0.5181
C570       C    0.9651187211    0.4925084136   -0.2129074805           0.525
C571       C    0.9637332756    0.4967140390   -0.2417033908         -0.4675
C572       C    0.9873970720    0.4971133938   -0.2584767423         -0.4647
C573       C    1.0125102789    0.4927843119   -0.2449172351          0.5299
C574       C    1.0138918500    0.4884163552   -0.2164470647          0.5224
C575       C    0.9855681083    0.5034332052   -0.2913689165         -0.4549
H576       H    0.9426161587    0.5006221362   -0.2515017624          -0.463
H577       H    0.9446979085    0.4936539501   -0.2013841998          0.5234
H578       H    1.0358112538    0.4853567113   -0.2089795166          0.5189
H579       H    1.0328353906    0.4933805843   -0.2566602421         -0.4678
H580       H    1.0068532442    0.5275911902   -0.1389168910         -0.4549
C581       C    1.0129102920    0.4974133278   -0.3099617969         -0.4573
C582       C    1.0019253172    0.4842707854   -0.3384906266         -0.4647
N583       N    0.9739240733    0.4711275671   -0.3306353157          0.5229
N584       N    0.9620900759    0.4870939506   -0.3058748323          -0.467
N585       N    0.9982252444    0.5060151790   -0.3619463654          -0.443
H586       H    0.9469819722    0.5006218584   -0.3145510587         -0.4544
H587       H    0.9765311655    0.4506897011   -0.3229548458          0.5044
H588       H    1.0266208828    0.4810178115   -0.2999589243          0.5275
H589       H    1.0167811356    0.4673267303   -0.3462792641          0.5221
H590       H    1.0258929265    0.5169323273   -0.3133305483         -0.4401
H591       H    0.9804873502    0.5264577046   -0.2939797324         -0.4349
N592       N    1.0000000000    0.5000000000   -0.3890812818         -0.4444
C525       C    1.0000000000    0.5000000000    0.3890812818          0.5178
C526       C    1.0262789156    0.5065585967    0.3781238796          0.5135
C527       C    1.0298645513    0.5114493038    0.3494985028          0.5132
C528       C    1.0072417844    0.5124691757    0.3307852269           0.515
C529       C    0.9810626546    0.5108018866    0.3435094237          0.5149
C530       C    0.9784334035    0.5005710161    0.3702383157            0.52
C531       C    1.0095337842    0.5114616610    0.3011342974          0.5199
H532       H    1.0520587701    0.5128783212    0.3419211465          0.5128
H533       H    1.0455665348    0.5044928599    0.3914958233          0.5133
O534       O    0.9719711250    0.4737102628    0.3663393160         -0.4565
H535       H    0.9612566162    0.5091706358    0.3313529548          0.5181
C536       C    1.0348812789    0.5074915864    0.2870925195           0.525
C537       C    1.0362667244    0.5032859610    0.2582966092         -0.4675
C538       C    1.0126029280    0.5028866062    0.2415232577         -0.4647
C539       C    0.9874897211    0.5072156881    0.2550827649          0.5299
C540       C    0.9861081500    0.5115836448    0.2835529353          0.5224
C541       C    1.0144318917    0.4965667948    0.2086310835         -0.4549
H542       H    1.0573838413    0.4993778638    0.2484982376          -0.463
H543       H    1.0553020915    0.5063460499    0.2986158002          0.5242
H544       H    0.9641887462    0.5146432887    0.2910204834          0.5189
H545       H    0.9671646094    0.5066194157    0.2433397579         -0.4678
H546       H    0.9931467558    0.4724088098    0.3610831090         -0.4549
C547       C    0.9870897080    0.5025866722    0.1900382031         -0.4573
C548       C    0.9980746828    0.5157292146    0.1615093734         -0.4647
N549       N    1.0260759267    0.5288724329    0.1693646843          0.5229
N550       N    1.0379099241    0.5129060494    0.1941251677          -0.467
N551       N    1.0017747556    0.4939848210    0.1380536346          -0.443
H552       H    1.0530180278    0.4993781416    0.1854489413         -0.4544
H553       H    1.0234688345    0.5493102989    0.1770451542          0.5044
H554       H    0.9733791172    0.5189821885    0.2000410757          0.5275
H555       H    0.9832188644    0.5326732697    0.1537207359          0.5221
H556       H    0.9741070735    0.4830676727    0.1866694517         -0.4401
H557       H    1.0195126498    0.4735422954    0.2060202676         -0.4349
N558       N    1.0000000000    0.5000000000    0.1109187182         -0.4444
C491       C    1.0000000000   -0.3890812818    0.5000000000          0.5178
C492       C    0.9737210844   -0.3781238796    0.4934414033          0.5135
C493       C    0.9701354487   -0.3494985028    0.4885506962          0.5132
C494       C    0.9927582156   -0.3307852269    0.4875308243           0.515
C495       C    1.0189373454   -0.3435094237    0.4891981134          0.5149
C496       C    1.0215665965   -0.3702383157    0.4994289839            0.52
C497       C    0.9904662158   -0.3011342974    0.4885383390          0.5199
H498       H    0.9479412299   -0.3419211465    0.4871216788          0.5128
H499       H    0.9544334652   -0.3914958233    0.4955071401          0.5133
O500       O    1.0280288750   -0.3663393160    0.5262897372         -0.4565
H501       H    1.0387433838   -0.3313529548    0.4908293642          0.5181
C502       C    0.9651187211   -0.2870925195    0.4925084136           0.525
C503       C    0.9637332756   -0.2582966092    0.4967140390         -0.4675
C504       C    0.9873970720   -0.2415232577    0.4971133938         -0.4647
C505       C    1.0125102789   -0.2550827649    0.4927843119          0.5299
C506       C    1.0138918500   -0.2835529353    0.4884163552          0.5224
C507       C    0.9855681083   -0.2086310835    0.5034332052         -0.4549
H508       H    0.9426161587   -0.2484982376    0.5006221362          -0.463
H509       H    0.9446979085   -0.2986158002    0.4936539501          0.5242
H510       H    1.0358112538   -0.2910204834    0.4853567113          0.5189
H511       H    1.0328353906   -0.2433397579    0.4933805843         -0.4678
H512       H    1.0068532442   -0.3610831090    0.5275911902         -0.4549
C513       C    1.0129102920   -0.1900382031    0.4974133278         -0.4573
C514       C    1.0019253172   -0.1615093734    0.4842707854         -0.4647
N515       N    0.9739240733   -0.1693646843    0.4711275671          0.5229
N516       N    0.9620900759   -0.1941251677    0.4870939506          -0.467
N517       N    0.9982252444   -0.1380536346    0.5060151790          -0.443
H518       H    0.9469819722   -0.1854489413    0.5006218584         -0.4544
H519       H    0.9765311655   -0.1770451542    0.4506897011          0.5044
H520       H    1.0266208828   -0.2000410757    0.4810178115          0.5275
H521       H    1.0167811356   -0.1537207359    0.4673267303          0.5221
H522       H    1.0258929265   -0.1866694517    0.5169323273         -0.4401
H523       H    0.9804873502   -0.2060202676    0.5264577046         -0.4349
N524       N    1.0000000000   -0.1109187182    0.5000000000         -0.4444
C457       C    1.0000000000    0.3890812818    0.5000000000          0.5178
C458       C    1.0265305825    0.3781238796    0.5054520443          0.5135
C459       C    1.0318787298    0.3494985028    0.5025931774          0.5132
C460       C    1.0119223163    0.3307852269    0.4918893799           0.515
C461       C    0.9875971726    0.3435094237    0.4820703130          0.5149
C462       C    0.9808017398    0.3702383157    0.4901576960            0.52
C463       C    1.0135531205    0.3011342974    0.4937890711          0.5199
H464       H    1.0525078824    0.3419211465    0.5109036228          0.5128
H465       H    1.0430275746    0.3914958233    0.5156563951          0.5133
O466       O    0.9633579621    0.3663393160    0.5115814148         -0.4565
H467       H    0.9690338247    0.3313529548    0.4749750857          0.5181
C468       C    1.0346902977    0.2870925195    0.5083313103           0.525
C469       C    1.0341205514    0.2582966092    0.5127224528         -0.4675
C470       C    1.0126116991    0.2415232577    0.5028480409         -0.4647
C471       C    0.9918410332    0.2550827649    0.4880834361          0.5299
C472       C    0.9924844803    0.2835529353    0.4835476055          0.5224
C473       C    1.0115274689    0.2086310835    0.5093372295         -0.4549
H474       H    1.0514702722    0.2484982376    0.5253791917          -0.463
H475       H    1.0526070003    0.2986158002    0.5181960762          0.5242
H476       H    0.9740444365    0.2910204834    0.4713088771          0.5189
H477       H    0.9732572935    0.2433397579    0.4798305382         -0.4678
H478       H    0.9818878028    0.3610831090    0.5219132163         -0.4549
C479       C    0.9894783385    0.1900382031    0.4920841202         -0.4573
C480       C    1.0050668785    0.1615093734    0.4849852812         -0.4647
N481       N    1.0359981934    0.1693646843    0.4852452922          0.5229
N482       N    1.0397627643    0.1941251677    0.5047593102          -0.467
N483       N    0.9989986461    0.1380536346    0.5061910763          -0.443
H484       H    1.0475340173    0.1854489413    0.5234907468         -0.4544
H485       H    1.0424868294    0.1770451542    0.4656902187          0.5044
H486       H    0.9842073614    0.2000410757    0.4713715623          0.5275
H487       H    0.9990005632    0.1537207359    0.4632828352          0.5221
H488       H    0.9693308477    0.1866694517    0.5040682243         -0.4401
H489       H    1.0061504722    0.2060202676    0.5322943544         -0.4349
N490       N    1.0000000000    0.1109187182    0.5000000000         -0.4444
C423       C    0.8890812818   -0.0000000000    0.5000000000          0.5178
C424       C    0.8781238796    0.0259648314    0.4922912954          0.5135
C425       C    0.8494985028    0.0315385881    0.4946806540          0.5132
C426       C    0.8307852269    0.0125743625    0.5070575627           0.515
C427       C    0.8435094237   -0.0108184016    0.5189279157          0.5149
C428       C    0.8702383157   -0.0182827999    0.5114535309            0.52
C429       C    0.8011342974    0.0140361249    0.5050249290          0.5199
H430       H    0.8419211465    0.0513784612    0.4846305358          0.5128
H431       H    0.8914958233    0.0415252586    0.4807088678          0.5133
O432       O    0.8663393160   -0.0375007442    0.4916058174         -0.4565
H433       H    0.8313529548   -0.0287043771    0.5275900178          0.5181
C434       C    0.7870925195    0.0338473550    0.4887224095           0.525
C435       C    0.7582966092    0.0329028761    0.4843963600         -0.4675
C436       C    0.7415232577    0.0123207634    0.4960801684         -0.4647
C437       C    0.7550827649   -0.0071062247    0.5125727803          0.5299
C438       C    0.7835529353   -0.0060759002    0.5170366593          0.5224
C439       C    0.7086310835    0.0106836508    0.4897079641         -0.4549
H440       H    0.7484982376    0.0491024298    0.4702974129          -0.463
H441       H    0.7986158002    0.0508513974    0.4773564788          0.5242
H442       H    0.7910204834   -0.0233976271    0.5308127061          0.5189
H443       H    0.7433397579   -0.0249131691    0.5223900323         -0.4678
H444       H    0.8610831090   -0.0199259050    0.4797219566         -0.4549
C445       C    0.6900382031   -0.0098035297    0.5087896143         -0.4573
C446       C    0.6615093734    0.0063367036    0.5145245043         -0.4647
N447       N    0.6693646843    0.0371315971    0.5116110218          0.5229
N448       N    0.6941251677    0.0392076469    0.4918459285          -0.467
N449       N    0.6380536346   -0.0015289591    0.4939176962          -0.443
H450       H    0.6854489413    0.0453427566    0.4725166886         -0.4544
H451       H    0.6770451542    0.0452744526    0.5305371202          0.5044
H452       H    0.7000410757   -0.0132775735    0.5298781011          0.5275
H453       H    0.6537207359    0.0021552049    0.5366674809          0.5221
H454       H    0.6866694517   -0.0309051339    0.4985787165         -0.4401
H455       H    0.7060202676    0.0033563800    0.4672969673         -0.4349
N456       N    0.6109187182   -0.0000000000    0.5000000000         -0.4444
C389       C    1.3890812818   -0.0000000000    0.5000000000          0.5178
C390       C    1.3781238796    0.0119165666    0.5243226651          0.5135
C391       C    1.3494985028    0.0104867293    0.5302159973          0.5132
C392       C    1.3307852269   -0.0048697043    0.5135723898           0.515
C393       C    1.3435094237   -0.0204625989    0.4924776434          0.5149
C394       C    1.3702383157   -0.0143326511    0.4838748874            0.52
C395       C    1.3011342974   -0.0026224081    0.5146760243          0.5199
H396       H    1.3419211465    0.0236942514    0.5481097615          0.5128
H397       H    1.3914958233    0.0259238945    0.5377418412          0.5133
O398       O    1.3663393160    0.0020452563    0.4616257242         -0.4565
H399       H    1.3313529548   -0.0319766912    0.4762799332          0.5181
C400       C    1.2870925195    0.0167458092    0.5315024660           0.525
C401       C    1.2582966092    0.0208547388    0.5298521809         -0.4675
C402       C    1.2415232577    0.0059128930    0.5114979992         -0.4647
C403       C    1.2550827649   -0.0135789166    0.4950820475          0.5299
C404       C    1.2835529353   -0.0178094926    0.4968398901          0.5224
C405       C    1.2086310835    0.0119244158    0.5088246646         -0.4549
H406       H    1.2484982376    0.0374498072    0.5434833788          -0.463
H407       H    1.2986158002    0.0307795632    0.5463811617          0.5242
H408       H    1.2910204834   -0.0342726433    0.4820484616          0.5189
H409       H    1.2433397579   -0.0262189612    0.4791542423         -0.4678
H410       H    1.3610831090    0.0166845981    0.4769812050         -0.4549
C411       C    1.1900382031   -0.0102966208    0.4917935322         -0.4573
C412       C    1.1615093734   -0.0132694383    0.5086623926         -0.4647
N413       N    1.1693646843   -0.0052787101    0.5385448642          0.5229
N414       N    1.1941251677    0.0145565453    0.5373073109          -0.467
N415       N    1.1380536346    0.0057436276    0.4974814930          -0.443
H416       H    1.1854489413    0.0346365779    0.5401448061         -0.4544
H417       H    1.1770451542   -0.0225883721    0.5497197870          0.5044
H418       H    1.2000410757   -0.0316691972    0.4918724649          0.5275
H419       H    1.1537207359   -0.0357994118    0.5082189524          0.5221
H420       H    1.1866694517   -0.0037345622    0.4692884322         -0.4401
H421       H    1.2060202676    0.0328060559    0.4978748345         -0.4349
N422       N    1.1109187182   -0.0000000000    0.5000000000         -0.4444
C355       C   -0.0000000000   -0.1109187182   -0.0000000000          0.5178
C356       C   -0.0081406521   -0.1218761204   -0.0258326611          0.5135
C357       C   -0.0132398643   -0.1505014972   -0.0291150129          0.5132
C358       C   -0.0128855138   -0.1692147731   -0.0064720414           0.515
C359       C   -0.0096332144   -0.1564905763    0.0195577346          0.5149
C360       C    0.0007383103   -0.1297616843    0.0215615176            0.52
C361       C   -0.0120188920   -0.1988657026   -0.0088209381          0.5199
H362       H   -0.0160125977   -0.1580788535   -0.0511816707          0.5128
H363       H   -0.0072487469   -0.1085041767   -0.0452100714          0.5133
O364       O    0.0279416110   -0.1336606840    0.0263824655         -0.4565
H365       H   -0.0068034922   -0.1686470452    0.0392283423          0.5181
C366       C   -0.0095937609   -0.2129074805   -0.0343625849           0.525
C367       C   -0.0054799248   -0.2417033908   -0.0360006008         -0.4675
C368       C   -0.0036458101   -0.2584767423   -0.0124046104         -0.4647
C369       C   -0.0064434997   -0.2449172351    0.0129249582          0.5299
C370       C   -0.0107196032   -0.2164470647    0.0145689543          0.5224
C371       C    0.0025514138   -0.2913689165   -0.0146135787         -0.4549
H372       H   -0.0028600333   -0.2515017624   -0.0573159009          -0.463
H373       H   -0.0096891032   -0.2013841998   -0.0548152803          0.5242
H374       H   -0.0124439356   -0.2089795166    0.0366335949          0.5189
H375       H   -0.0046153617   -0.2566602421    0.0331764672         -0.4678
H376       H    0.0279561093   -0.1389168910    0.0051668838         -0.4549
C377       C   -0.0017987432   -0.3099617969    0.0130434289         -0.4573
C378       C   -0.0155834533   -0.3384906266    0.0028759385         -0.4647
N379       N   -0.0304010804   -0.3306353157   -0.0242764421          0.5229
N380       N   -0.0151819763   -0.3058748323   -0.0370571997          -0.467
N381       N    0.0058964408   -0.3619463654   -0.0021363804          -0.443
H382       H   -0.0025954712   -0.3145510587   -0.0529581109         -0.4544
H383       H   -0.0506431556   -0.3229548458   -0.0204343476          0.5044
H384       H   -0.0173323518   -0.2999589243    0.0277233559          0.5275
H385       H   -0.0315951185   -0.3462792641    0.0187322596          0.5221
H386       H    0.0184718631   -0.3133305483    0.0248180907         -0.4401
H387       H    0.0252253009   -0.2939797324   -0.0210816941         -0.4349
N388       N    0.0000000000   -0.3890812818    0.0000000000         -0.4444
C321       C   -0.0000000000    0.3890812818    0.0000000000          0.5178
C322       C   -0.0185405632    0.3781238796    0.0197444704          0.5135
C323       C   -0.0189064894    0.3494985028    0.0257977255          0.5132
C324       C    0.0006643671    0.3307852269    0.0144042494           0.515
C325       C    0.0217698228    0.3435094237   -0.0011741469          0.5149
C326       C    0.0184398843    0.3702383157   -0.0111988754            0.52
C327       C   -0.0018080749    0.3011342974    0.0147984316          0.5199
H328       H   -0.0367909305    0.3419211465    0.0390178695          0.5128
H329       H   -0.0358739842    0.3914958233    0.0284526298          0.5133
O330       O    0.0093267560    0.3663393160   -0.0372797497         -0.4565
H331       H    0.0375370470    0.3313529548   -0.0132710380          0.5181
C332       C   -0.0252671804    0.2870925195    0.0251872404           0.525
C333       C   -0.0287093648    0.2582966092    0.0224019019         -0.4675
C334       C   -0.0090318842    0.2415232577    0.0092515598         -0.4647
C335       C    0.0144246723    0.2550827649   -0.0007085644          0.5299
C336       C    0.0179515065    0.2835529353    0.0022153413          0.5224
C337       C   -0.0139918178    0.2086310835    0.0049290394         -0.4549
H338       H   -0.0485785027    0.2484982376    0.0305519453          -0.463
H339       H   -0.0430549431    0.2986158002    0.0352826522          0.5242
H340       H    0.0380356518    0.2910204834   -0.0070824430          0.5189
H341       H    0.0311887423    0.2433397579   -0.0122164600         -0.4678
H342       H   -0.0091800024    0.3610831090   -0.0269066589         -0.4549
C343       C    0.0122542140    0.1900382031   -0.0048167160         -0.4573
C344       C    0.0101363929    0.1615093734    0.0121806640         -0.4647
N345       N   -0.0062863439    0.1693646843    0.0383934007          0.5229
N346       N   -0.0248812258    0.1941251677    0.0313791820          -0.467
N347       N   -0.0047493948    0.1380536346   -0.0040957764          -0.443
H348       H   -0.0449080888    0.1854489413    0.0281879681         -0.4544
H349       H    0.0069730726    0.1770451542    0.0541633458          0.5044
H350       H    0.0326591028    0.2000410757    0.0015420392          0.5275
H351       H    0.0318011039    0.1537207359    0.0183803932          0.5221
H352       H    0.0125984019    0.1866694517   -0.0282564615         -0.4401
H353       H   -0.0307315371    0.2060202676   -0.0116758839         -0.4349
N354       N    0.0000000000    0.1109187182    0.0000000000         -0.4444
C287       C   -0.3890812818   -0.0000000000    0.0000000000          0.5178
C288       C   -0.3781238796   -0.0083855214    0.0257542157          0.5135
C289       C   -0.3494985028   -0.0061428370    0.0313885893          0.5132
C290       C   -0.3307852269    0.0067260956    0.0127547411           0.515
C291       C   -0.3435094237    0.0192045334   -0.0103193846          0.5149
C292       C   -0.3702383157    0.0119280392   -0.0179768191            0.52
C293       C   -0.3011342974    0.0046559061    0.0141628123          0.5199
H294       H   -0.3419211465   -0.0167086901    0.0509586732          0.5128
H295       H   -0.3914958233   -0.0203711731    0.0410062213          0.5133
O296       O   -0.3663393160   -0.0074099757   -0.0377075639         -0.4565
H297       H   -0.3313529548    0.0283317156   -0.0279725622          0.5181
C298       C   -0.2870925195   -0.0121594577    0.0335406481           0.525
C299       C   -0.2582966092   -0.0164593102    0.0324832871         -0.4675
C300       C   -0.2415232577   -0.0042409032    0.0122139686         -0.4647
C301       C   -0.2550827649    0.0127544329   -0.0067747824          0.5299
C302       C   -0.2835529353    0.0171898213   -0.0056279984          0.5224
C303       C   -0.2086310835   -0.0105680848    0.0104106666         -0.4549
H304       H   -0.2484982376   -0.0309773447    0.0483083472          -0.463
H305       H   -0.2986158002   -0.0239664637    0.0502414399          0.5242
H306       H   -0.2910204834    0.0314144314   -0.0225832971          0.5189
H307       H   -0.2433397579    0.0230343012   -0.0243187275         -0.4678
H308       H   -0.3610831090   -0.0197496713   -0.0204497242         -0.4549
C309       C   -0.1900382031    0.0090431464   -0.0095701628         -0.4573
C310       C   -0.1615093734    0.0143537094    0.0067146158         -0.4647
N311       N   -0.1693646843    0.0106353733    0.0374227226          0.5229
N312       N   -0.1941251677   -0.0091772782    0.0389808417          -0.467
N313       N   -0.1380536346   -0.0060402106   -0.0016875993          -0.443
H314       H   -0.1854489413   -0.0286604446    0.0446080363         -0.4544
H315       H   -0.1770451542    0.0293419054    0.0460580542          0.5044
H316       H   -0.2000410757    0.0302153214   -0.0124911662          0.5275
H317       H   -0.1537207359    0.0365985260    0.0031139941          0.5221
H318       H   -0.1866694517   -0.0006120607   -0.0309317431         -0.4401
H319       H   -0.2060202676   -0.0327796644    0.0024994465         -0.4349
N320       N   -0.1109187182   -0.0000000000    0.0000000000         -0.4444
C253       C    0.3890812818   -0.0000000000    0.0000000000          0.5178
C254       C    0.3781238796    0.0151455503    0.0224545964          0.5135
C255       C    0.3494985028    0.0145390370    0.0284884957          0.5132
C256       C    0.3307852269   -0.0029586276    0.0141127711           0.515
C257       C    0.3435094237   -0.0213021107   -0.0046393839          0.5149
C258       C    0.3702383157   -0.0164123496   -0.0140028185            0.52
C259       C    0.3011342974   -0.0005810037    0.0148971524          0.5199
H260       H    0.3419211465    0.0300799473    0.0443977868          0.5128
H261       H    0.3914958233    0.0308638583    0.0338218440          0.5133
O262       O    0.3663393160   -0.0032468874   -0.0382913285         -0.4565
H263       H    0.3313529548   -0.0349326100   -0.0191013901          0.5181
C264       C    0.2870925195    0.0209155156    0.0289027455           0.525
C265       C    0.2582966092    0.0247587186    0.0267035333         -0.4675
C266       C    0.2415232577    0.0074366713    0.0105764933         -0.4647
C267       C    0.2550827649   -0.0141258655   -0.0030055214          0.5299
C268       C    0.2835529353   -0.0180747823   -0.0006830572          0.5224
C269       C    0.2086310835    0.0130238516    0.0071025127         -0.4549
H270       H    0.2484982376    0.0430693552    0.0379252282          -0.463
H271       H    0.2986158002    0.0368605415    0.0417120384          0.5242
H272       H    0.2910204834   -0.0364141717   -0.0130721040          0.5189
H273       H    0.2433397579   -0.0288345519   -0.0170454733         -0.4678
H274       H    0.3610831090    0.0133634942   -0.0250929823         -0.4549
C275       C    0.1900382031   -0.0113265537   -0.0067138435         -0.4573
C276       C    0.1615093734   -0.0119533408    0.0104034937         -0.4647
N277       N    0.1693646843    0.0000675416    0.0389045855          0.5229
N278       N    0.1941251677    0.0195446201    0.0349533444          -0.467
N279       N    0.1380536346    0.0053430998   -0.0032838118          -0.443
H280       H    0.1854489413    0.0398240785    0.0350048676         -0.4544
H281       H    0.1770451542   -0.0155424727    0.0523519179          0.5044
H282       H    0.2000410757   -0.0324855702   -0.0036990009          0.5275
H283       H    0.1537207359   -0.0343305523    0.0130599480          0.5221
H284       H    0.1866694517   -0.0079190056   -0.0299071346         -0.4401
H285       H    0.2060202676    0.0322028931   -0.0066126629         -0.4349
N286       N    0.1109187182   -0.0000000000    0.0000000000         -0.4444
C219       C    0.0000000000    0.0000000000   -0.1109187182          0.5178
C220       C    0.0258390541    0.0081203372   -0.1218761204          0.5135
C221       C    0.0291254145    0.0132169669   -0.1505014972          0.5132
C222       C    0.0064821713    0.0128804208   -0.1692147731           0.515
C223       C   -0.0195501539    0.0096485898   -0.1564905763          0.5149
C224       C   -0.0215620915   -0.0007213561   -0.1297616843            0.52
C225       C    0.0088303859    0.0120119523   -0.1988657026          0.5199
H226       H    0.0511942457    0.0159723483   -0.1580788535          0.5128
H227       H    0.0452157571    0.0072131956   -0.1085041767          0.5133
O228       O   -0.0264044280   -0.0279208577   -0.1336606840         -0.4565
H229       H   -0.0392229805    0.0068343356   -0.1686470452          0.5181
C230       C    0.0343701179    0.0095667384   -0.2129074805           0.525
C231       C    0.0360048986    0.0054516156   -0.2417033908         -0.4675
C232       C    0.0124074733    0.0036360551   -0.2584767423         -0.4647
C233       C   -0.0129198877    0.0064536607   -0.2449172351          0.5299
C234       C   -0.0145605209    0.0107310556   -0.2164470647          0.5224
C235       C    0.0146115680   -0.0025629037   -0.2913689165         -0.4549
H236       H    0.0573181321    0.0028149646   -0.2515017624          -0.463
H237       H    0.0548228819    0.0096459986   -0.2013841998          0.5242
H238       H   -0.0366237988    0.0124727370   -0.2089795166          0.5189
H239       H   -0.0331728279    0.0046414471   -0.2566602421         -0.4678
H240       H   -0.0051888642   -0.0279520379   -0.1389168910         -0.4549
C241       C   -0.0130420105    0.0018089987   -0.3099617969         -0.4573
C242       C   -0.0028636842    0.0155857098   -0.3384906266         -0.4647
N243       N    0.0243003392    0.0303819823   -0.3306353157          0.5229
N244       N    0.0370691260    0.0151528333   -0.3058748323          -0.467
N245       N    0.0021317434   -0.0058981188   -0.3619463654          -0.443
H246       H    0.0529601354    0.0025538291   -0.3145510587         -0.4544
H247       H    0.0204741623    0.0506270723   -0.3229548458          0.5044
H248       H   -0.0277097188    0.0173541455   -0.2999589243          0.5275
H249       H   -0.0187074104    0.0316098380   -0.3462792641          0.5221
H250       H   -0.0248326076   -0.0184523427   -0.3133305483         -0.4401
H251       H    0.0210618528   -0.0252418698   -0.2939797324         -0.4349
N252       N   -0.0000000000    0.0000000000   -0.3890812818         -0.4444
C185       C    0.0000000000   -0.0000000000    0.1109187182          0.5178
C186       C    0.0052725564    0.0265668354    0.1218761204          0.5135
C187       C    0.0099830591    0.0303861237    0.1505014972          0.5132
C188       C    0.0121021555    0.0078397459    0.1692147731           0.515
C189       C    0.0117102628   -0.0183894956    0.1564905763          0.5149
C190       C    0.0016193970   -0.0215132912    0.1297616843            0.52
C191       C    0.0109843445    0.0100800243    0.1988657026          0.5199
H192       H    0.0103307989    0.0526235812    0.1580788535          0.5128
H193       H    0.0022710636    0.0457311399    0.1085041767          0.5133
O194       O   -0.0248952173   -0.0292744987    0.1336606840         -0.4565
H195       H    0.0110443616   -0.0382514369    0.1686470452          0.5181
C196       C    0.0057859997    0.0352043988    0.2129074805           0.525
C197       C    0.0015179610    0.0363836313    0.2417033908         -0.4675
C198       C    0.0022701491    0.0127284215    0.2584767423         -0.4647
C199       C    0.0078156798   -0.0121444795    0.2449172351          0.5299
C200       C    0.0122456692   -0.0133119460    0.2164470647          0.5224
C201       C   -0.0041311469    0.0142478076    0.2913689165         -0.4549
H202       H   -0.0034127029    0.0572856505    0.2515017624          -0.463
H203       H    0.0036484964    0.0555453161    0.2013841998          0.5242
H204       H    0.0163679096   -0.0350565734    0.2089795166          0.5189
H205       H    0.0082087809   -0.0324745355    0.2566602421         -0.4678
H206       H   -0.0272251689   -0.0081872408    0.1389168910         -0.4549
C207       C    0.0032116012   -0.0127691868    0.3099617969         -0.4573
C208       C    0.0158042476   -0.0011579271    0.3384906266         -0.4647
N209       N    0.0275698523    0.0274494914    0.3306353157          0.5229
N210       N    0.0110467319    0.0384928327    0.3058748323          -0.467
N211       N   -0.0060943873    0.0014800603    0.3619463654          -0.443
H212       H   -0.0032000606    0.0529250186    0.3145510587         -0.4544
H213       H    0.0481103408    0.0258396377    0.3229548458          0.5044
H214       H    0.0202546290   -0.0256660259    0.2999589243          0.5275
H215       H    0.0334508717   -0.0151719559    0.3462792641          0.5221
H216       H   -0.0156527825   -0.0266859092    0.3133305483         -0.4401
H217       H   -0.0273755325    0.0182025782    0.2939797324         -0.4349
N218       N   -0.0000000000    0.0000000000    0.3890812818         -0.4444
loop_
_geom_bond_atom_site_label_1
_geom_bond_atom_site_label_2
_geom_bond_distance
_geom_bond_site_symmetry_2
_ccdc_geom_bond_type
Zn1          O5 1.942       .   S
Zn1          O6 1.922       .   S
Zn1         O10 1.922       .   S
Zn1         O17 1.922       .   S
Zn2          O5 1.942       .   S
Zn2          O7 1.922       .   S
Zn2          O9 1.922       .   S
Zn2         O13 1.922       .   S
Zn3          O5 1.942       .   S
Zn3          O8 1.922       .   S
Zn3         O11 1.922       .   S
Zn3         O14 1.922       .   S
Zn4          O5 1.942       .   S
Zn4         O12 1.922       .   S
Zn4         O15 1.922       .   S
Zn4         O16 1.922       .   S
O6          C18 1.304       .   A
O7          C19 1.304       .   A
O8          C20 1.304       .   A
O9          C18 1.304       .   A
O10         C20 1.304       .   A
O11         C19 1.304       .   A
O12         C21 1.304       .   A
O13         C22 1.304       .   A
O14         C21 1.304       .   A
O15         C22 1.304       .   A
O16         C23 1.304       .   A
O17         C23 1.304       .   A
C18        N354 1.540       .   S
C19        C185 1.540       .   S
C20        N320 1.540       .   S
C21        C355 1.540       .   S
C22        N286 1.540       .   S
C23        C219 1.540       .   S
Zn24        O28 1.942       .   S
Zn24        O29 1.922       .   S
Zn24        O33 1.922       .   S
Zn24        O40 1.922       .   S
Zn25        O28 1.942       .   S
Zn25        O30 1.922       .   S
Zn25        O32 1.922       .   S
Zn25        O36 1.922       .   S
Zn26        O28 1.942       .   S
Zn26        O31 1.922       .   S
Zn26        O34 1.922       .   S
Zn26        O37 1.922       .   S
Zn27        O28 1.942       .   S
Zn27        O35 1.922       .   S
Zn27        O38 1.922       .   S
Zn27        O39 1.922       .   S
O29         C41 1.304       .   A
O30         C42 1.304       .   A
O31         C43 1.304       .   A
O32         C41 1.304       .   A
O33         C43 1.304       .   A
O34         C42 1.304       .   A
O35         C44 1.304       .   A
O36         C45 1.304       .   A
O37         C44 1.304       .   A
O38         C45 1.304       .   A
O39         C46 1.304       .   A
O40         C46 1.304       .   A
C41        N524 1.540       .   S
C42        N422 1.540       .   S
C43        N218 1.540   1_655   S
C44        N490 1.540       .   S
C45        N252 1.540   1_656   S
C46        C423 1.540       .   S
Zn47        O51 1.942       .   S
Zn47        O52 1.922       .   S
Zn47        O56 1.922       .   S
Zn47        O63 1.922       .   S
Zn48        O51 1.942       .   S
Zn48        O53 1.922       .   S
Zn48        O55 1.922       .   S
Zn48        O59 1.922       .   S
Zn49        O51 1.942       .   S
Zn49        O54 1.922       .   S
Zn49        O57 1.922       .   S
Zn49        O60 1.922       .   S
Zn50        O51 1.942       .   S
Zn50        O58 1.922       .   S
Zn50        O61 1.922       .   S
Zn50        O62 1.922       .   S
O52         C64 1.304       .   A
O53         C65 1.304       .   A
O54         C66 1.304       .   A
O55         C64 1.304       .   A
O56         C66 1.304       .   A
O57         C65 1.304       .   A
O58         C67 1.304       .   A
O59         C68 1.304       .   A
O60         C67 1.304       .   A
O61         C68 1.304       .   A
O62         C69 1.304       .   A
O63         C69 1.304       .   A
C64        C321 1.540   1_655   S
C65        N558 1.540       .   S
C66        C593 1.540       .   S
C67        N388 1.540   1_665   S
C68        N660 1.540       .   S
C69        C559 1.540       .   S
Zn70        O74 1.942       .   S
Zn70        O75 1.922       .   S
Zn70        O79 1.922       .   S
Zn70        O86 1.922       .   S
Zn71        O74 1.942       .   S
Zn71        O76 1.922       .   S
Zn71        O78 1.922       .   S
Zn71        O82 1.922       .   S
Zn72        O74 1.942       .   S
Zn72        O77 1.922       .   S
Zn72        O80 1.922       .   S
Zn72        O83 1.922       .   S
Zn73        O74 1.942       .   S
Zn73        O81 1.922       .   S
Zn73        O84 1.922       .   S
Zn73        O85 1.922       .   S
O75         C87 1.304       .   A
O76         C88 1.304       .   A
O77         C89 1.304       .   A
O78         C87 1.304       .   A
O79         C89 1.304       .   A
O80         C88 1.304       .   A
O81         C90 1.304       .   A
O82         C91 1.304       .   A
O83         C90 1.304       .   A
O84         C91 1.304       .   A
O85         C92 1.304       .   A
O86         C92 1.304       .   A
C87        C457 1.540       .   S
C88        C525 1.540       .   S
C89        N728 1.540       .   S
C90        C491 1.540   1_565   S
C91        C661 1.540       .   S
C92        N592 1.540   1_556   S
Zn93        O97 1.942       .   S
Zn93        O98 1.922       .   S
Zn93       O102 1.922       .   S
Zn93       O109 1.922       .   S
Zn94        O97 1.942       .   S
Zn94        O99 1.922       .   S
Zn94       O101 1.922       .   S
Zn94       O105 1.922       .   S
Zn95        O97 1.942       .   S
Zn95       O100 1.922       .   S
Zn95       O103 1.922       .   S
Zn95       O106 1.922       .   S
Zn96        O97 1.942       .   S
Zn96       O104 1.922       .   S
Zn96       O107 1.922       .   S
Zn96       O108 1.922       .   S
O98        C110 1.304       .   A
O99        C111 1.304       .   A
O100       C112 1.304       .   A
O101       C110 1.304       .   A
O102       C112 1.304       .   A
O103       C111 1.304       .   A
O104       C113 1.304       .   A
O105       C114 1.304       .   A
O106       C113 1.304       .   A
O107       C114 1.304       .   A
O108       C115 1.304       .   A
O109       C115 1.304       .   A
C110       C253 1.540   1_565   S
C111       N762 1.540       .   S
C112       C831 1.540       .   S
C113       C287 1.540   1_665   S
C114       C797 1.540       .   S
C115       C763 1.540       .   S
Zn116      O120 1.942       .   S
Zn116      O121 1.922       .   S
Zn116      O125 1.922       .   S
Zn116      O132 1.922       .   S
Zn117      O120 1.942       .   S
Zn117      O122 1.922       .   S
Zn117      O124 1.922       .   S
Zn117      O128 1.922       .   S
Zn118      O120 1.942       .   S
Zn118      O123 1.922       .   S
Zn118      O126 1.922       .   S
Zn118      O129 1.922       .   S
Zn119      O120 1.942       .   S
Zn119      O127 1.922       .   S
Zn119      O130 1.922       .   S
Zn119      O131 1.922       .   S
O121       C133 1.304       .   A
O122       C134 1.304       .   A
O123       C135 1.304       .   A
O124       C133 1.304       .   A
O125       C135 1.304       .   A
O126       C134 1.304       .   A
O127       C136 1.304       .   A
O128       C137 1.304       .   A
O129       C136 1.304       .   A
O130       C137 1.304       .   A
O131       C138 1.304       .   A
O132       C138 1.304       .   A
C133       C389 1.540   1_465   S
C134       C729 1.540       .   S
C135       C865 1.540       .   S
C136       N456 1.540   1_565   S
C137       C899 1.540       .   S
C138       N796 1.540   1_556   S
Zn139      O143 1.942       .   S
Zn139      O144 1.922       .   S
Zn139      O148 1.922       .   S
Zn139      O155 1.922       .   S
Zn140      O143 1.942       .   S
Zn140      O145 1.922       .   S
Zn140      O147 1.922       .   S
Zn140      O151 1.922       .   S
Zn141      O143 1.942       .   S
Zn141      O146 1.922       .   S
Zn141      O149 1.922       .   S
Zn141      O152 1.922       .   S
Zn142      O143 1.942       .   S
Zn142      O150 1.922       .   S
Zn142      O153 1.922       .   S
Zn142      O154 1.922       .   S
O144       C156 1.304       .   A
O145       C157 1.304       .   A
O146       C158 1.304       .   A
O147       C156 1.304       .   A
O148       C158 1.304       .   A
O149       C157 1.304       .   A
O150       C159 1.304       .   A
O151       C160 1.304       .   A
O152       C159 1.304       .   A
O153       C160 1.304       .   A
O154       C161 1.304       .   A
O155       C161 1.304       .   A
C156       N626 1.540   1_455   S
C157       N830 1.540   1_545   S
C158       C967 1.540       .   S
C159       C627 1.540       .   S
C160       N966 1.540       .   S
C161       N864 1.540       .   S
Zn162      O166 1.942       .   S
Zn162      O167 1.922       .   S
Zn162      O171 1.922       .   S
Zn162      O178 1.922       .   S
Zn163      O166 1.942       .   S
Zn163      O168 1.922       .   S
Zn163      O170 1.922       .   S
Zn163      O174 1.922       .   S
Zn164      O166 1.942       .   S
Zn164      O169 1.922       .   S
Zn164      O172 1.922       .   S
Zn164      O175 1.922       .   S
Zn165      O166 1.942       .   S
Zn165      O173 1.922       .   S
Zn165      O176 1.922       .   S
Zn165      O177 1.922       .   S
O167       C179 1.304       .   A
O168       C180 1.304       .   A
O169       C181 1.304       .   A
O170       C179 1.304       .   A
O171       C181 1.304       .   A
O172       C180 1.304       .   A
O173       C182 1.304       .   A
O174       C183 1.304       .   A
O175       C182 1.304       .   A
O176       C183 1.304       .   A
O177       C184 1.304       .   A
O178       C184 1.304       .   A
C179       N694 1.540   1_455   S
C180      N1000 1.540   1_556   S
C181       N898 1.540   1_545   S
C182       C695 1.540       .   S
C183       N932 1.540       .   S
C184       C933 1.540       .   S
C967       C968 0.025       .   A
C967       C972 0.025       .   A
C968       C969 0.025       .   A
C968       H975 0.020       .   A
C969       C970 0.025       .   A
C969       H974 0.020       .   A
C970       C971 0.025       .   A
C970       C973 0.026       .   A
C971       C972 0.025       .   A
C971       H977 0.020       .   A
C972       O976 0.024       .   A
C973       C978 0.025       .   A
C973       C982 0.025       .   A
O976       H988 0.019       .   A
C978       C979 0.025       .   A
C978       H985 0.020       .   A
C979       C980 0.025       .   A
C979       H984 0.020       .   A
C980       C981 0.025       .   A
C980       C983 0.029       .   A
C981       C982 0.025       .   A
C981       H987 0.020       .   A
C982       H986 0.020       .   A
C983       C989 0.029       .   A
C983       N992 0.028       .   A
C983       H999 0.020       .   A
C989       C990 0.029       .   A
C989       H996 0.020       .   A
C989       H998 0.020       .   A
C990       N991 0.028       .   A
C990       N993 0.028       .   A
C990       H997 0.021       .   A
N991       N992 0.027       .   A
N991       H995 0.019       .   A
N992       H994 0.019       .   A
N993      N1000 0.024       .   A
C933       C934 0.025       .   A
C933       C938 0.025       .   A
C934       C935 0.025       .   A
C934       H941 0.020       .   A
C935       C936 0.025       .   A
C935       H940 0.020       .   A
C936       C937 0.025       .   A
C936       C939 0.026       .   A
C937       C938 0.025       .   A
C937       H943 0.020       .   A
C938       O942 0.024       .   A
C939       C944 0.025       .   A
C939       C948 0.025       .   A
O942       H954 0.019       .   A
C944       C945 0.025       .   A
C944       H951 0.020       .   A
C945       C946 0.025       .   A
C945       H950 0.020       .   A
C946       C947 0.025       .   A
C946       C949 0.029       .   A
C947       C948 0.025       .   A
C947       H953 0.020       .   A
C948       H952 0.020       .   A
C949       C955 0.029       .   A
C949       N958 0.028       .   A
C949       H965 0.020       .   A
C955       C956 0.029       .   A
C955       H962 0.020       .   A
C955       H964 0.020       .   A
C956       N957 0.028       .   A
C956       N959 0.028       .   A
C956       H963 0.021       .   A
N957       N958 0.027       .   A
N957       H961 0.019       .   A
N958       H960 0.019       .   A
N959       N966 0.024       .   A
C899       C900 0.025       .   A
C899       C904 0.025       .   A
C900       C901 0.025       .   A
C900       H907 0.020       .   A
C901       C902 0.025       .   A
C901       H906 0.020       .   A
C902       C903 0.025       .   A
C902       C905 0.026       .   A
C903       C904 0.025       .   A
C903       H909 0.020       .   A
C904       O908 0.024       .   A
C905       C910 0.025       .   A
C905       C914 0.025       .   A
O908       H920 0.019       .   A
C910       C911 0.025       .   A
C910       H917 0.020       .   A
C911       C912 0.025       .   A
C911       H916 0.020       .   A
C912       C913 0.025       .   A
C912       C915 0.029       .   A
C913       C914 0.025       .   A
C913       H919 0.020       .   A
C914       H918 0.020       .   A
C915       C921 0.029       .   A
C915       N924 0.028       .   A
C915       H931 0.020       .   A
C921       C922 0.029       .   A
C921       H928 0.020       .   A
C921       H930 0.020       .   A
C922       N923 0.028       .   A
C922       N925 0.028       .   A
C922       H929 0.021       .   A
N923       N924 0.027       .   A
N923       H927 0.019       .   A
N924       H926 0.019       .   A
N925       N932 0.024       .   A
C865       C866 0.025       .   A
C865       C870 0.025       .   A
C866       C867 0.025       .   A
C866       H873 0.020       .   A
C867       C868 0.025       .   A
C867       H872 0.020       .   A
C868       C869 0.025       .   A
C868       C871 0.026       .   A
C869       C870 0.025       .   A
C869       H875 0.020       .   A
C870       O874 0.024       .   A
C871       C876 0.025       .   A
C871       C880 0.025       .   A
O874       H886 0.019       .   A
C876       C877 0.025       .   A
C876       H883 0.020       .   A
C877       C878 0.025       .   A
C877       H882 0.020       .   A
C878       C879 0.025       .   A
C878       C881 0.029       .   A
C879       C880 0.025       .   A
C879       H885 0.020       .   A
C880       H884 0.020       .   A
C881       C887 0.029       .   A
C881       N890 0.028       .   A
C881       H897 0.020       .   A
C887       C888 0.029       .   A
C887       H894 0.020       .   A
C887       H896 0.020       .   A
C888       N889 0.028       .   A
C888       N891 0.028       .   A
C888       H895 0.021       .   A
N889       N890 0.027       .   A
N889       H893 0.019       .   A
N890       H892 0.019       .   A
N891       N898 0.024       .   A
C831       C832 0.025       .   A
C831       C836 0.025       .   A
C832       C833 0.025       .   A
C832       H839 0.020       .   A
C833       C834 0.025       .   A
C833       H838 0.020       .   A
C834       C835 0.025       .   A
C834       C837 0.026       .   A
C835       C836 0.025       .   A
C835       H841 0.020       .   A
C836       O840 0.024       .   A
C837       C842 0.025       .   A
C837       C846 0.025       .   A
O840       H852 0.019       .   A
C842       C843 0.025       .   A
C842       H849 0.020       .   A
C843       C844 0.025       .   A
C843       H848 0.020       .   A
C844       C845 0.025       .   A
C844       C847 0.029       .   A
C845       C846 0.025       .   A
C845       H851 0.020       .   A
C846       H850 0.020       .   A
C847       C853 0.029       .   A
C847       N856 0.028       .   A
C847       H863 0.020       .   A
C853       C854 0.029       .   A
C853       H860 0.020       .   A
C853       H862 0.020       .   A
C854       N855 0.028       .   A
C854       N857 0.028       .   A
C854       H861 0.021       .   A
N855       N856 0.027       .   A
N855       H859 0.019       .   A
N856       H858 0.019       .   A
N857       N864 0.024       .   A
C797       C798 0.025       .   A
C797       C802 0.025       .   A
C798       C799 0.025       .   A
C798       H805 0.020       .   A
C799       C800 0.025       .   A
C799       H804 0.020       .   A
C800       C801 0.025       .   A
C800       C803 0.026       .   A
C801       C802 0.025       .   A
C801       H807 0.020       .   A
C802       O806 0.024       .   A
C803       C808 0.025       .   A
C803       C812 0.025       .   A
O806       H818 0.019       .   A
C808       C809 0.025       .   A
C808       H815 0.020       .   A
C809       C810 0.025       .   A
C809       H814 0.020       .   A
C810       C811 0.025       .   A
C810       C813 0.029       .   A
C811       C812 0.025       .   A
C811       H817 0.020       .   A
C812       H816 0.020       .   A
C813       C819 0.029       .   A
C813       N822 0.028       .   A
C813       H829 0.020       .   A
C819       C820 0.029       .   A
C819       H826 0.020       .   A
C819       H828 0.020       .   A
C820       N821 0.028       .   A
C820       N823 0.028       .   A
C820       H827 0.021       .   A
N821       N822 0.027       .   A
N821       H825 0.019       .   A
N822       H824 0.019       .   A
N823       N830 0.024       .   A
C763       C764 0.025       .   A
C763       C768 0.025       .   A
C764       C765 0.025       .   A
C764       H771 0.020       .   A
C765       C766 0.025       .   A
C765       H770 0.020       .   A
C766       C767 0.025       .   A
C766       C769 0.026       .   A
C767       C768 0.025       .   A
C767       H773 0.020       .   A
C768       O772 0.024       .   A
C769       C774 0.025       .   A
C769       C778 0.025       .   A
O772       H784 0.019       .   A
C774       C775 0.025       .   A
C774       H781 0.020       .   A
C775       C776 0.025       .   A
C775       H780 0.020       .   A
C776       C777 0.025       .   A
C776       C779 0.029       .   A
C777       C778 0.025       .   A
C777       H783 0.020       .   A
C778       H782 0.020       .   A
C779       C785 0.029       .   A
C779       N788 0.028       .   A
C779       H795 0.020       .   A
C785       C786 0.029       .   A
C785       H792 0.020       .   A
C785       H794 0.020       .   A
C786       N787 0.028       .   A
C786       N789 0.028       .   A
C786       H793 0.021       .   A
N787       N788 0.027       .   A
N787       H791 0.019       .   A
N788       H790 0.019       .   A
N789       N796 0.024       .   A
C729       C730 0.025       .   A
C729       C734 0.025       .   A
C730       C731 0.025       .   A
C730       H737 0.020       .   A
C731       C732 0.025       .   A
C731       H736 0.020       .   A
C732       C733 0.025       .   A
C732       C735 0.026       .   A
C733       C734 0.025       .   A
C733       H739 0.020       .   A
C734       O738 0.024       .   A
C735       C740 0.025       .   A
C735       C744 0.025       .   A
O738       H750 0.019       .   A
C740       C741 0.025       .   A
C740       H747 0.020       .   A
C741       C742 0.025       .   A
C741       H746 0.020       .   A
C742       C743 0.025       .   A
C742       C745 0.029       .   A
C743       C744 0.025       .   A
C743       H749 0.020       .   A
C744       H748 0.020       .   A
C745       C751 0.029       .   A
C745       N754 0.028       .   A
C745       H761 0.020       .   A
C751       C752 0.029       .   A
C751       H758 0.020       .   A
C751       H760 0.020       .   A
C752       N753 0.028       .   A
C752       N755 0.028       .   A
C752       H759 0.021       .   A
N753       N754 0.027       .   A
N753       H757 0.019       .   A
N754       H756 0.019       .   A
N755       N762 0.024       .   A
C695       C696 0.025       .   A
C695       C700 0.025       .   A
C696       C697 0.025       .   A
C696       H703 0.020       .   A
C697       C698 0.025       .   A
C697       H702 0.020       .   A
C698       C699 0.025       .   A
C698       C701 0.026       .   A
C699       C700 0.025       .   A
C699       H705 0.020       .   A
C700       O704 0.024       .   A
C701       C706 0.025       .   A
C701       C710 0.025       .   A
O704       H716 0.019       .   A
C706       C707 0.025       .   A
C706       H713 0.020       .   A
C707       C708 0.025       .   A
C707       H712 0.020       .   A
C708       C709 0.025       .   A
C708       C711 0.029       .   A
C709       C710 0.025       .   A
C709       H715 0.020       .   A
C710       H714 0.020       .   A
C711       C717 0.029       .   A
C711       N720 0.028       .   A
C711       H727 0.020       .   A
C717       C718 0.029       .   A
C717       H724 0.020       .   A
C717       H726 0.020       .   A
C718       N719 0.028       .   A
C718       N721 0.028       .   A
C718       H725 0.021       .   A
N719       N720 0.027       .   A
N719       H723 0.019       .   A
N720       H722 0.019       .   A
N721       N728 0.024       .   A
C661       C662 0.025       .   A
C661       C666 0.025       .   A
C662       C663 0.025       .   A
C662       H669 0.020       .   A
C663       C664 0.025       .   A
C663       H668 0.020       .   A
C664       C665 0.025       .   A
C664       C667 0.026       .   A
C665       C666 0.025       .   A
C665       H671 0.020       .   A
C666       O670 0.024       .   A
C667       C672 0.025       .   A
C667       C676 0.025       .   A
O670       H682 0.019       .   A
C672       C673 0.025       .   A
C672       H679 0.020       .   A
C673       C674 0.025       .   A
C673       H678 0.020       .   A
C674       C675 0.025       .   A
C674       C677 0.029       .   A
C675       C676 0.025       .   A
C675       H681 0.020       .   A
C676       H680 0.020       .   A
C677       C683 0.029       .   A
C677       N686 0.028       .   A
C677       H693 0.020       .   A
C683       C684 0.029       .   A
C683       H690 0.020       .   A
C683       H692 0.020       .   A
C684       N685 0.028       .   A
C684       N687 0.028       .   A
C684       H691 0.021       .   A
N685       N686 0.027       .   A
N685       H689 0.019       .   A
N686       H688 0.019       .   A
N687       N694 0.024       .   A
C627       C628 0.025       .   A
C627       C632 0.025       .   A
C628       C629 0.025       .   A
C628       H635 0.020       .   A
C629       C630 0.025       .   A
C629       H634 0.020       .   A
C630       C631 0.025       .   A
C630       C633 0.026       .   A
C631       C632 0.025       .   A
C631       H637 0.020       .   A
C632       O636 0.024       .   A
C633       C638 0.025       .   A
C633       C642 0.025       .   A
O636       H648 0.019       .   A
C638       C639 0.025       .   A
C638       H645 0.020       .   A
C639       C640 0.025       .   A
C639       H644 0.020       .   A
C640       C641 0.025       .   A
C640       C643 0.029       .   A
C641       C642 0.025       .   A
C641       H647 0.020       .   A
C642       H646 0.020       .   A
C643       C649 0.029       .   A
C643       N652 0.028       .   A
C643       H659 0.020       .   A
C649       C650 0.029       .   A
C649       H656 0.020       .   A
C649       H658 0.020       .   A
C650       N651 0.028       .   A
C650       N653 0.028       .   A
C650       H657 0.021       .   A
N651       N652 0.027       .   A
N651       H655 0.019       .   A
N652       H654 0.019       .   A
N653       N660 0.024       .   A
C593       C594 0.025       .   A
C593       C598 0.025       .   A
C594       C595 0.025       .   A
C594       H601 0.020       .   A
C595       C596 0.025       .   A
C595       H600 0.020       .   A
C596       C597 0.025       .   A
C596       C599 0.026       .   A
C597       C598 0.025       .   A
C597       H603 0.020       .   A
C598       O602 0.024       .   A
C599       C604 0.025       .   A
C599       C608 0.025       .   A
O602       H614 0.019       .   A
C604       C605 0.025       .   A
C604       H611 0.020       .   A
C605       C606 0.025       .   A
C605       H610 0.020       .   A
C606       C607 0.025       .   A
C606       C609 0.029       .   A
C607       C608 0.025       .   A
C607       H613 0.020       .   A
C608       H612 0.020       .   A
C609       C615 0.029       .   A
C609       N618 0.028       .   A
C609       H625 0.020       .   A
C615       C616 0.029       .   A
C615       H622 0.020       .   A
C615       H624 0.020       .   A
C616       N617 0.028       .   A
C616       N619 0.028       .   A
C616       H623 0.021       .   A
N617       N618 0.027       .   A
N617       H621 0.019       .   A
N618       H620 0.019       .   A
N619       N626 0.024       .   A
C559       C560 0.025       .   A
C559       C564 0.025       .   A
C560       C561 0.025       .   A
C560       H567 0.020       .   A
C561       C562 0.025       .   A
C561       H566 0.020       .   A
C562       C563 0.025       .   A
C562       C565 0.026       .   A
C563       C564 0.025       .   A
C563       H569 0.020       .   A
C564       O568 0.024       .   A
C565       C570 0.025       .   A
C565       C574 0.025       .   A
O568       H580 0.019       .   A
C570       C571 0.025       .   A
C570       H577 0.020       .   A
C571       C572 0.025       .   A
C571       H576 0.020       .   A
C572       C573 0.025       .   A
C572       C575 0.029       .   A
C573       C574 0.025       .   A
C573       H579 0.020       .   A
C574       H578 0.020       .   A
C575       C581 0.029       .   A
C575       N584 0.028       .   A
C575       H591 0.020       .   A
C581       C582 0.029       .   A
C581       H588 0.020       .   A
C581       H590 0.020       .   A
C582       N583 0.028       .   A
C582       N585 0.028       .   A
C582       H589 0.021       .   A
N583       N584 0.027       .   A
N583       H587 0.019       .   A
N584       H586 0.019       .   A
N585       N592 0.024       .   A
C525       C526 0.025       .   A
C525       C530 0.025       .   A
C526       C527 0.025       .   A
C526       H533 0.020       .   A
C527       C528 0.025       .   A
C527       H532 0.020       .   A
C528       C529 0.025       .   A
C528       C531 0.026       .   A
C529       C530 0.025       .   A
C529       H535 0.020       .   A
C530       O534 0.024       .   A
C531       C536 0.025       .   A
C531       C540 0.025       .   A
O534       H546 0.019       .   A
C536       C537 0.025       .   A
C536       H543 0.020       .   A
C537       C538 0.025       .   A
C537       H542 0.020       .   A
C538       C539 0.025       .   A
C538       C541 0.029       .   A
C539       C540 0.025       .   A
C539       H545 0.020       .   A
C540       H544 0.020       .   A
C541       C547 0.029       .   A
C541       N550 0.028       .   A
C541       H557 0.020       .   A
C547       C548 0.029       .   A
C547       H554 0.020       .   A
C547       H556 0.020       .   A
C548       N549 0.028       .   A
C548       N551 0.028       .   A
C548       H555 0.021       .   A
N549       N550 0.027       .   A
N549       H553 0.019       .   A
N550       H552 0.019       .   A
N551       N558 0.024       .   A
C491       C492 0.025       .   A
C491       C496 0.025       .   A
C492       C493 0.025       .   A
C492       H499 0.020       .   A
C493       C494 0.025       .   A
C493       H498 0.020       .   A
C494       C495 0.025       .   A
C494       C497 0.026       .   A
C495       C496 0.025       .   A
C495       H501 0.020       .   A
C496       O500 0.024       .   A
C497       C502 0.025       .   A
C497       C506 0.025       .   A
O500       H512 0.019       .   A
C502       C503 0.025       .   A
C502       H509 0.020       .   A
C503       C504 0.025       .   A
C503       H508 0.020       .   A
C504       C505 0.025       .   A
C504       C507 0.029       .   A
C505       C506 0.025       .   A
C505       H511 0.020       .   A
C506       H510 0.020       .   A
C507       C513 0.029       .   A
C507       N516 0.028       .   A
C507       H523 0.020       .   A
C513       C514 0.029       .   A
C513       H520 0.020       .   A
C513       H522 0.020       .   A
C514       N515 0.028       .   A
C514       N517 0.028       .   A
C514       H521 0.021       .   A
N515       N516 0.027       .   A
N515       H519 0.019       .   A
N516       H518 0.019       .   A
N517       N524 0.024       .   A
C457       C458 0.025       .   A
C457       C462 0.025       .   A
C458       C459 0.025       .   A
C458       H465 0.020       .   A
C459       C460 0.025       .   A
C459       H464 0.020       .   A
C460       C461 0.025       .   A
C460       C463 0.026       .   A
C461       C462 0.025       .   A
C461       H467 0.020       .   A
C462       O466 0.024       .   A
C463       C468 0.025       .   A
C463       C472 0.025       .   A
O466       H478 0.019       .   A
C468       C469 0.025       .   A
C468       H475 0.020       .   A
C469       C470 0.025       .   A
C469       H474 0.020       .   A
C470       C471 0.025       .   A
C470       C473 0.029       .   A
C471       C472 0.025       .   A
C471       H477 0.020       .   A
C472       H476 0.020       .   A
C473       C479 0.029       .   A
C473       N482 0.028       .   A
C473       H489 0.020       .   A
C479       C480 0.029       .   A
C479       H486 0.020       .   A
C479       H488 0.020       .   A
C480       N481 0.028       .   A
C480       N483 0.028       .   A
C480       H487 0.021       .   A
N481       N482 0.027       .   A
N481       H485 0.019       .   A
N482       H484 0.019       .   A
N483       N490 0.024       .   A
C423       C424 0.025       .   A
C423       C428 0.025       .   A
C424       C425 0.025       .   A
C424       H431 0.020       .   A
C425       C426 0.025       .   A
C425       H430 0.020       .   A
C426       C427 0.025       .   A
C426       C429 0.026       .   A
C427       C428 0.025       .   A
C427       H433 0.020       .   A
C428       O432 0.024       .   A
C429       C434 0.025       .   A
C429       C438 0.025       .   A
O432       H444 0.019       .   A
C434       C435 0.025       .   A
C434       H441 0.020       .   A
C435       C436 0.025       .   A
C435       H440 0.020       .   A
C436       C437 0.025       .   A
C436       C439 0.029       .   A
C437       C438 0.025       .   A
C437       H443 0.020       .   A
C438       H442 0.020       .   A
C439       C445 0.029       .   A
C439       N448 0.028       .   A
C439       H455 0.020       .   A
C445       C446 0.029       .   A
C445       H452 0.020       .   A
C445       H454 0.020       .   A
C446       N447 0.028       .   A
C446       N449 0.028       .   A
C446       H453 0.021       .   A
N447       N448 0.027       .   A
N447       H451 0.019       .   A
N448       H450 0.019       .   A
N449       N456 0.024       .   A
C389       C390 0.025       .   A
C389       C394 0.025       .   A
C390       C391 0.025       .   A
C390       H397 0.020       .   A
C391       C392 0.025       .   A
C391       H396 0.020       .   A
C392       C393 0.025       .   A
C392       C395 0.026       .   A
C393       C394 0.025       .   A
C393       H399 0.020       .   A
C394       O398 0.024       .   A
C395       C400 0.025       .   A
C395       C404 0.025       .   A
O398       H410 0.019       .   A
C400       C401 0.025       .   A
C400       H407 0.020       .   A
C401       C402 0.025       .   A
C401       H406 0.020       .   A
C402       C403 0.025       .   A
C402       C405 0.029       .   A
C403       C404 0.025       .   A
C403       H409 0.020       .   A
C404       H408 0.020       .   A
C405       C411 0.029       .   A
C405       N414 0.028       .   A
C405       H421 0.020       .   A
C411       C412 0.029       .   A
C411       H418 0.020       .   A
C411       H420 0.020       .   A
C412       N413 0.028       .   A
C412       N415 0.028       .   A
C412       H419 0.021       .   A
N413       N414 0.027       .   A
N413       H417 0.019       .   A
N414       H416 0.019       .   A
N415       N422 0.024       .   A
C355       C356 0.025       .   A
C355       C360 0.025       .   A
C356       C357 0.025       .   A
C356       H363 0.020       .   A
C357       C358 0.025       .   A
C357       H362 0.020       .   A
C358       C359 0.025       .   A
C358       C361 0.026       .   A
C359       C360 0.025       .   A
C359       H365 0.020       .   A
C360       O364 0.024       .   A
C361       C366 0.025       .   A
C361       C370 0.025       .   A
O364       H376 0.019       .   A
C366       C367 0.025       .   A
C366       H373 0.020       .   A
C367       C368 0.025       .   A
C367       H372 0.020       .   A
C368       C369 0.025       .   A
C368       C371 0.029       .   A
C369       C370 0.025       .   A
C369       H375 0.020       .   A
C370       H374 0.020       .   A
C371       C377 0.029       .   A
C371       N380 0.028       .   A
C371       H387 0.020       .   A
C377       C378 0.029       .   A
C377       H384 0.020       .   A
C377       H386 0.020       .   A
C378       N379 0.028       .   A
C378       N381 0.028       .   A
C378       H385 0.021       .   A
N379       N380 0.027       .   A
N379       H383 0.019       .   A
N380       H382 0.019       .   A
N381       N388 0.024       .   A
C321       C322 0.025       .   A
C321       C326 0.025       .   A
C322       C323 0.025       .   A
C322       H329 0.020       .   A
C323       C324 0.025       .   A
C323       H328 0.020       .   A
C324       C325 0.025       .   A
C324       C327 0.026       .   A
C325       C326 0.025       .   A
C325       H331 0.020       .   A
C326       O330 0.024       .   A
C327       C332 0.025       .   A
C327       C336 0.025       .   A
O330       H342 0.019       .   A
C332       C333 0.025       .   A
C332       H339 0.020       .   A
C333       C334 0.025       .   A
C333       H338 0.020       .   A
C334       C335 0.025       .   A
C334       C337 0.029       .   A
C335       C336 0.025       .   A
C335       H341 0.020       .   A
C336       H340 0.020       .   A
C337       C343 0.029       .   A
C337       N346 0.028       .   A
C337       H353 0.020       .   A
C343       C344 0.029       .   A
C343       H350 0.020       .   A
C343       H352 0.020       .   A
C344       N345 0.028       .   A
C344       N347 0.028       .   A
C344       H351 0.021       .   A
N345       N346 0.027       .   A
N345       H349 0.019       .   A
N346       H348 0.019       .   A
N347       N354 0.024       .   A
C287       C288 0.025       .   A
C287       C292 0.025       .   A
C288       C289 0.025       .   A
C288       H295 0.020       .   A
C289       C290 0.025       .   A
C289       H294 0.020       .   A
C290       C291 0.025       .   A
C290       C293 0.026       .   A
C291       C292 0.025       .   A
C291       H297 0.020       .   A
C292       O296 0.024       .   A
C293       C298 0.025       .   A
C293       C302 0.025       .   A
O296       H308 0.019       .   A
C298       C299 0.025       .   A
C298       H305 0.020       .   A
C299       C300 0.025       .   A
C299       H304 0.020       .   A
C300       C301 0.025       .   A
C300       C303 0.029       .   A
C301       C302 0.025       .   A
C301       H307 0.020       .   A
C302       H306 0.020       .   A
C303       C309 0.029       .   A
C303       N312 0.028       .   A
C303       H319 0.020       .   A
C309       C310 0.029       .   A
C309       H316 0.020       .   A
C309       H318 0.020       .   A
C310       N311 0.028       .   A
C310       N313 0.028       .   A
C310       H317 0.021       .   A
N311       N312 0.027       .   A
N311       H315 0.019       .   A
N312       H314 0.019       .   A
N313       N320 0.024       .   A
C253       C254 0.025       .   A
C253       C258 0.025       .   A
C254       C255 0.025       .   A
C254       H261 0.020       .   A
C255       C256 0.025       .   A
C255       H260 0.020       .   A
C256       C257 0.025       .   A
C256       C259 0.026       .   A
C257       C258 0.025       .   A
C257       H263 0.020       .   A
C258       O262 0.024       .   A
C259       C264 0.025       .   A
C259       C268 0.025       .   A
O262       H274 0.019       .   A
C264       C265 0.025       .   A
C264       H271 0.020       .   A
C265       C266 0.025       .   A
C265       H270 0.020       .   A
C266       C267 0.025       .   A
C266       C269 0.029       .   A
C267       C268 0.025       .   A
C267       H273 0.020       .   A
C268       H272 0.020       .   A
C269       C275 0.029       .   A
C269       N278 0.028       .   A
C269       H285 0.020       .   A
C275       C276 0.029       .   A
C275       H282 0.020       .   A
C275       H284 0.020       .   A
C276       N277 0.028       .   A
C276       N279 0.028       .   A
C276       H283 0.021       .   A
N277       N278 0.027       .   A
N277       H281 0.019       .   A
N278       H280 0.019       .   A
N279       N286 0.024       .   A
C219       C220 0.025       .   A
C219       C224 0.025       .   A
C220       C221 0.025       .   A
C220       H227 0.020       .   A
C221       C222 0.025       .   A
C221       H226 0.020       .   A
C222       C223 0.025       .   A
C222       C225 0.026       .   A
C223       C224 0.025       .   A
C223       H229 0.020       .   A
C224       O228 0.024       .   A
C225       C230 0.025       .   A
C225       C234 0.025       .   A
O228       H240 0.019       .   A
C230       C231 0.025       .   A
C230       H237 0.020       .   A
C231       C232 0.025       .   A
C231       H236 0.020       .   A
C232       C233 0.025       .   A
C232       C235 0.029       .   A
C233       C234 0.025       .   A
C233       H239 0.020       .   A
C234       H238 0.020       .   A
C235       C241 0.029       .   A
C235       N244 0.028       .   A
C235       H251 0.020       .   A
C241       C242 0.029       .   A
C241       H248 0.020       .   A
C241       H250 0.020       .   A
C242       N243 0.028       .   A
C242       N245 0.028       .   A
C242       H249 0.021       .   A
N243       N244 0.027       .   A
N243       H247 0.019       .   A
N244       H246 0.019       .   A
N245       N252 0.024       .   A
C185       C186 0.025       .   A
C185       C190 0.025       .   A
C186       C187 0.025       .   A
C186       H193 0.020       .   A
C187       C188 0.025       .   A
C187       H192 0.020       .   A
C188       C189 0.025       .   A
C188       C191 0.026       .   A
C189       C190 0.025       .   A
C189       H195 0.020       .   A
C190       O194 0.024       .   A
C191       C196 0.025       .   A
C191       C200 0.025       .   A
O194       H206 0.019       .   A
C196       C197 0.025       .   A
C196       H203 0.020       .   A
C197       C198 0.025       .   A
C197       H202 0.020       .   A
C198       C199 0.025       .   A
C198       C201 0.029       .   A
C199       C200 0.025       .   A
C199       H205 0.020       .   A
C200       H204 0.020       .   A
C201       C207 0.029       .   A
C201       N210 0.028       .   A
C201       H217 0.020       .   A
C207       C208 0.029       .   A
C207       H214 0.020       .   A
C207       H216 0.020       .   A
C208       N209 0.028       .   A
C208       N211 0.028       .   A
C208       H215 0.021       .   A
N209       N210 0.027       .   A
N209       H213 0.019       .   A
N210       H212 0.019       .   A
N211       N218 0.024       .   A
