data_pcu_v1-6c_Zn_1_Ch_1-69_fer_tobacco
_audit_creation_date              2021-04-07
_audit_creation_method            'tobacco_3.0'
_symmetry_space_group_name_H-M    'P1'
_symmetry_Int_Tables_number       1
_symmetry_cell_setting            triclinic
loop_
_symmetry_equiv_pos_as_xyz
  x,y,z
_cell_length_a                    43.97245982550952
_cell_length_b                    43.97245982550952
_cell_length_c                    43.97245982550952
_cell_angle_alpha                 90.0
_cell_angle_beta                  90.0
_cell_angle_gamma                 90.0
loop_
_atom_site_label
_atom_site_type_symbol
_atom_site_fract_x
_atom_site_fract_y
_atom_site_fract_z
_atom_site_charge
Zn1       Zn   -0.0254977776   -0.0254977776    0.0254977776          1.4972
Zn2       Zn   -0.0254977776    0.0254977776   -0.0254977776          1.4936
Zn3       Zn    0.0254977776    0.0254977776    0.0254977776          1.4911
Zn4       Zn    0.0254977776   -0.0254977776   -0.0254977776          1.4948
O5         O    0.0000000000    0.0000000000    0.0000000000          -2.227
O6         O   -0.0681471997   -0.0187390017    0.0187390017         -1.1333
O7         O   -0.0187390017    0.0681471997   -0.0187390017         -1.1315
O8         O    0.0187390017    0.0187390017    0.0681471997         -1.1266
O9         O   -0.0681471997    0.0187390017   -0.0187390017         -1.1334
O10        O   -0.0187390017   -0.0187390017    0.0681471997         -1.1294
O11        O    0.0187390017    0.0681471997    0.0187390017         -1.1353
O12        O    0.0681471997   -0.0187390017   -0.0187390017         -1.1292
O13        O   -0.0187390017    0.0187390017   -0.0681471997         -1.1367
O14        O    0.0681471997    0.0187390017    0.0187390017         -1.1306
O15        O    0.0187390017   -0.0187390017   -0.0681471997         -1.1353
O16        O    0.0187390017   -0.0681471997   -0.0187390017         -1.1344
O17        O   -0.0187390017   -0.0681471997    0.0187390017         -1.1323
C18        C   -0.0814782710   -0.0000000000    0.0000000000          0.3856
C19        C    0.0000000000    0.0814782710   -0.0000000000          0.3905
C20        C   -0.0000000000    0.0000000000    0.0814782710          0.3801
C21        C    0.0814782710    0.0000000000   -0.0000000000          0.3839
C22        C    0.0000000000   -0.0000000000   -0.0814782710          0.3952
C23        C   -0.0000000000   -0.0814782710    0.0000000000          0.3857
Zn24      Zn    0.9745022224    0.0254977776    0.4745022224          1.4972
Zn25      Zn    1.0254977776   -0.0254977776    0.4745022224          1.4936
Zn26      Zn    1.0254977776    0.0254977776    0.5254977776          1.4911
Zn27      Zn    0.9745022224   -0.0254977776    0.5254977776          1.4948
O28        O    1.0000000000    0.0000000000    0.5000000000          -2.227
O29        O    0.9812609983    0.0187390017    0.4318528003         -1.1333
O30        O    1.0681471997   -0.0187390017    0.4812609983         -1.1315
O31        O    1.0187390017    0.0681471997    0.5187390017         -1.1266
O32        O    1.0187390017   -0.0187390017    0.4318528003         -1.1334
O33        O    0.9812609983    0.0681471997    0.4812609983         -1.1294
O34        O    1.0681471997    0.0187390017    0.5187390017         -1.1353
O35        O    0.9812609983   -0.0187390017    0.5681471997         -1.1292
O36        O    1.0187390017   -0.0681471997    0.4812609983         -1.1367
O37        O    1.0187390017    0.0187390017    0.5681471997         -1.1306
O38        O    0.9812609983   -0.0681471997    0.5187390017         -1.1353
O39        O    0.9318528003   -0.0187390017    0.5187390017         -1.1344
O40        O    0.9318528003    0.0187390017    0.4812609983         -1.1323
C41        C    1.0000000000    0.0000000000    0.4185217290          0.3856
C42        C    1.0814782710    0.0000000000    0.5000000000          0.3905
C43        C    1.0000000000    0.0814782710    0.5000000000          0.3801
C44        C    1.0000000000    0.0000000000    0.5814782710          0.3839
C45        C    1.0000000000   -0.0814782710    0.5000000000          0.3952
C46        C    0.9185217290    0.0000000000    0.5000000000          0.3857
Zn47      Zn    1.0254977776    0.4745022224    0.0254977776          1.4972
Zn48      Zn    0.9745022224    0.4745022224   -0.0254977776          1.4936
Zn49      Zn    0.9745022224    0.5254977776    0.0254977776          1.4911
Zn50      Zn    1.0254977776    0.5254977776   -0.0254977776          1.4948
O51        O    1.0000000000    0.5000000000    0.0000000000          -2.227
O52        O    1.0187390017    0.4318528003    0.0187390017         -1.1333
O53        O    0.9318528003    0.4812609983   -0.0187390017         -1.1315
O54        O    0.9812609983    0.5187390017    0.0681471997         -1.1266
O55        O    0.9812609983    0.4318528003   -0.0187390017         -1.1334
O56        O    1.0187390017    0.4812609983    0.0681471997         -1.1294
O57        O    0.9318528003    0.5187390017    0.0187390017         -1.1353
O58        O    1.0187390017    0.5681471997   -0.0187390017         -1.1292
O59        O    0.9812609983    0.4812609983   -0.0681471997         -1.1367
O60        O    0.9812609983    0.5681471997    0.0187390017         -1.1306
O61        O    1.0187390017    0.5187390017   -0.0681471997         -1.1353
O62        O    1.0681471997    0.5187390017   -0.0187390017         -1.1344
O63        O    1.0681471997    0.4812609983    0.0187390017         -1.1323
C64        C    1.0000000000    0.4185217290    0.0000000000          0.3856
C65        C    0.9185217290    0.5000000000    0.0000000000          0.3905
C66        C    1.0000000000    0.5000000000    0.0814782710          0.3801
C67        C    1.0000000000    0.5814782710    0.0000000000          0.3839
C68        C    1.0000000000    0.5000000000   -0.0814782710          0.3952
C69        C    1.0814782710    0.5000000000    0.0000000000          0.3857
Zn70      Zn    0.9745022224    0.4745022224    0.5254977776          1.4972
Zn71      Zn    1.0254977776    0.4745022224    0.4745022224          1.4936
Zn72      Zn    0.9745022224    0.5254977776    0.4745022224          1.4911
Zn73      Zn    1.0254977776    0.5254977776    0.5254977776          1.4948
O74        O    1.0000000000    0.5000000000    0.5000000000          -2.227
O75        O    0.9812609983    0.4318528003    0.5187390017         -1.1333
O76        O    1.0187390017    0.4812609983    0.4318528003         -1.1315
O77        O    0.9318528003    0.5187390017    0.4812609983         -1.1266
O78        O    1.0187390017    0.4318528003    0.4812609983         -1.1334
O79        O    0.9318528003    0.4812609983    0.5187390017         -1.1294
O80        O    0.9812609983    0.5187390017    0.4318528003         -1.1353
O81        O    1.0187390017    0.5681471997    0.5187390017         -1.1292
O82        O    1.0681471997    0.4812609983    0.4812609983         -1.1367
O83        O    0.9812609983    0.5681471997    0.4812609983         -1.1306
O84        O    1.0681471997    0.5187390017    0.5187390017         -1.1353
O85        O    1.0187390017    0.5187390017    0.5681471997         -1.1344
O86        O    0.9812609983    0.4812609983    0.5681471997         -1.1323
C87        C    1.0000000000    0.4185217290    0.5000000000          0.3856
C88        C    1.0000000000    0.5000000000    0.4185217290          0.3905
C89        C    0.9185217290    0.5000000000    0.5000000000          0.3801
C90        C    1.0000000000    0.5814782710    0.5000000000          0.3839
C91        C    1.0814782710    0.5000000000    0.5000000000          0.3952
C92        C    1.0000000000    0.5000000000    0.5814782710          0.3857
Zn93      Zn    0.5254977776    1.0254977776    0.0254977776          1.4972
Zn94      Zn    0.5254977776    0.9745022224   -0.0254977776          1.4936
Zn95      Zn    0.4745022224    0.9745022224    0.0254977776          1.4911
Zn96      Zn    0.4745022224    1.0254977776   -0.0254977776          1.4948
O97        O    0.5000000000    1.0000000000    0.0000000000          -2.227
O98        O    0.5681471997    1.0187390017    0.0187390017         -1.1333
O99        O    0.5187390017    0.9318528003   -0.0187390017         -1.1315
O100       O    0.4812609983    0.9812609983    0.0681471997         -1.1266
O101       O    0.5681471997    0.9812609983   -0.0187390017         -1.1334
O102       O    0.5187390017    1.0187390017    0.0681471997         -1.1294
O103       O    0.4812609983    0.9318528003    0.0187390017         -1.1353
O104       O    0.4318528003    1.0187390017   -0.0187390017         -1.1292
O105       O    0.5187390017    0.9812609983   -0.0681471997         -1.1367
O106       O    0.4318528003    0.9812609983    0.0187390017         -1.1306
O107       O    0.4812609983    1.0187390017   -0.0681471997         -1.1353
O108       O    0.4812609983    1.0681471997   -0.0187390017         -1.1344
O109       O    0.5187390017    1.0681471997    0.0187390017         -1.1323
C110       C    0.5814782710    1.0000000000    0.0000000000          0.3856
C111       C    0.5000000000    0.9185217290    0.0000000000          0.3905
C112       C    0.5000000000    1.0000000000    0.0814782710          0.3801
C113       C    0.4185217290    1.0000000000    0.0000000000          0.3839
C114       C    0.5000000000    1.0000000000   -0.0814782710          0.3952
C115       C    0.5000000000    1.0814782710    0.0000000000          0.3857
Zn116     Zn    0.4745022224    0.9745022224    0.4745022224          1.4972
Zn117     Zn    0.4745022224    1.0254977776    0.5254977776          1.4936
Zn118     Zn    0.5254977776    0.9745022224    0.5254977776          1.4911
Zn119     Zn    0.5254977776    1.0254977776    0.4745022224          1.4948
O120       O    0.5000000000    1.0000000000    0.5000000000          -2.227
O121       O    0.4318528003    0.9812609983    0.4812609983         -1.1333
O122       O    0.4812609983    1.0187390017    0.5681471997         -1.1315
O123       O    0.5187390017    0.9318528003    0.5187390017         -1.1266
O124       O    0.4318528003    1.0187390017    0.5187390017         -1.1334
O125       O    0.4812609983    0.9318528003    0.4812609983         -1.1294
O126       O    0.5187390017    0.9812609983    0.5681471997         -1.1353
O127       O    0.5681471997    1.0187390017    0.4812609983         -1.1292
O128       O    0.4812609983    1.0681471997    0.5187390017         -1.1367
O129       O    0.5681471997    0.9812609983    0.5187390017         -1.1306
O130       O    0.5187390017    1.0681471997    0.4812609983         -1.1353
O131       O    0.5187390017    1.0187390017    0.4318528003         -1.1344
O132       O    0.4812609983    0.9812609983    0.4318528003         -1.1323
C133       C    0.4185217290    1.0000000000    0.5000000000          0.3856
C134       C    0.5000000000    1.0000000000    0.5814782710          0.3905
C135       C    0.5000000000    0.9185217290    0.5000000000          0.3801
C136       C    0.5814782710    1.0000000000    0.5000000000          0.3839
C137       C    0.5000000000    1.0814782710    0.5000000000          0.3952
C138       C    0.5000000000    1.0000000000    0.4185217290          0.3857
Zn139     Zn    0.4745022224    0.5254977776   -0.0254977776          1.4972
Zn140     Zn    0.4745022224    0.4745022224    0.0254977776          1.4936
Zn141     Zn    0.5254977776    0.4745022224   -0.0254977776          1.4911
Zn142     Zn    0.5254977776    0.5254977776    0.0254977776          1.4948
O143       O    0.5000000000    0.5000000000    0.0000000000          -2.227
O144       O    0.4318528003    0.5187390017   -0.0187390017         -1.1333
O145       O    0.4812609983    0.4318528003    0.0187390017         -1.1315
O146       O    0.5187390017    0.4812609983   -0.0681471997         -1.1266
O147       O    0.4318528003    0.4812609983    0.0187390017         -1.1334
O148       O    0.4812609983    0.5187390017   -0.0681471997         -1.1294
O149       O    0.5187390017    0.4318528003   -0.0187390017         -1.1353
O150       O    0.5681471997    0.5187390017    0.0187390017         -1.1292
O151       O    0.4812609983    0.4812609983    0.0681471997         -1.1367
O152       O    0.5681471997    0.4812609983   -0.0187390017         -1.1306
O153       O    0.5187390017    0.5187390017    0.0681471997         -1.1353
O154       O    0.5187390017    0.5681471997    0.0187390017         -1.1344
O155       O    0.4812609983    0.5681471997   -0.0187390017         -1.1323
C156       C    0.4185217290    0.5000000000    0.0000000000          0.3856
C157       C    0.5000000000    0.4185217290    0.0000000000          0.3905
C158       C    0.5000000000    0.5000000000   -0.0814782710          0.3801
C159       C    0.5814782710    0.5000000000    0.0000000000          0.3839
C160       C    0.5000000000    0.5000000000    0.0814782710          0.3952
C161       C    0.5000000000    0.5814782710    0.0000000000          0.3857
Zn162     Zn    0.5254977776    0.4745022224    0.4745022224          1.4972
Zn163     Zn    0.4745022224    0.5254977776    0.4745022224          1.4936
Zn164     Zn    0.4745022224    0.4745022224    0.5254977776          1.4911
Zn165     Zn    0.5254977776    0.5254977776    0.5254977776          1.4948
O166       O    0.5000000000    0.5000000000    0.5000000000          -2.227
O167       O    0.5187390017    0.4812609983    0.4318528003         -1.1333
O168       O    0.4318528003    0.5187390017    0.4812609983         -1.1315
O169       O    0.4812609983    0.4318528003    0.5187390017         -1.1266
O170       O    0.4812609983    0.5187390017    0.4318528003         -1.1334
O171       O    0.5187390017    0.4318528003    0.4812609983         -1.1294
O172       O    0.4318528003    0.4812609983    0.5187390017         -1.1353
O173       O    0.5187390017    0.5187390017    0.5681471997         -1.1292
O174       O    0.4812609983    0.5681471997    0.4812609983         -1.1367
O175       O    0.4812609983    0.4812609983    0.5681471997         -1.1306
O176       O    0.5187390017    0.5681471997    0.5187390017         -1.1353
O177       O    0.5681471997    0.5187390017    0.5187390017         -1.1344
O178       O    0.5681471997    0.4812609983    0.4812609983         -1.1323
C179       C    0.5000000000    0.5000000000    0.4185217290          0.3856
C180       C    0.4185217290    0.5000000000    0.5000000000          0.3905
C181       C    0.5000000000    0.4185217290    0.5000000000          0.3801
C182       C    0.5000000000    0.5000000000    0.5814782710          0.3839
C183       C    0.5000000000    0.5814782710    0.5000000000          0.3952
C184       C    0.5814782710    0.5000000000    0.5000000000          0.3857
C806       C    0.5000000000    0.5000000000   -0.3834998083          0.6096
C807       C    0.5272266014    0.5008874132   -0.3698989166          0.6104
C808       C    0.5293668984    0.5029618407   -0.3395843757         -0.3875
C809       C    0.5047225295    0.5041306010   -0.3214033174         -0.3863
C810       C    0.4774829643    0.5020196353   -0.3353390332         -0.3882
C811       C    0.4754345148    0.4999912075   -0.3656729548          0.6098
C812       C    0.5084531589    0.5111798900   -0.2866665861         -0.3799
H813       H    0.5521684145    0.5046433834   -0.3300665516          -0.386
H814       H    0.5481085827    0.5007484699   -0.3832936416          0.6102
H815       H    0.4530161229    0.4989333468   -0.3759914369          0.6088
F816       F    0.4514902522    0.5030124998   -0.3196056403         -0.3872
O817       O    0.4848724835    0.5016803966   -0.2643785024         -0.3878
C818       C    0.5319595774    0.4991395793   -0.2382108718          0.6103
C819       C    0.5384439855    0.5002342877   -0.2723179434          0.6109
C820       C    0.4839220987    0.4996700732   -0.2045240982          0.6111
H821       H    0.5570277041    0.5160249754   -0.2771397750         -0.3757
H822       H    0.5358300432    0.5215621985   -0.2281981071         -0.3705
H823       H    0.5463299849    0.4824370443   -0.2267834332          0.5961
H824       H    0.5446271542    0.4776182074   -0.2805300004          0.5915
H825       H    0.4966209061    0.4657045005   -0.2370048719          0.5818
C826       C    0.4982972326    0.4904327046   -0.2355513120          0.6029
H827       H    0.5086289968    0.5359759521   -0.2852280442         -0.3587
C828       C    0.5002419058    0.4996645797   -0.1780152045         -0.3886
C829       C    0.4897081397    0.5030560056   -0.1466873432         -0.3854
H830       H    0.5245683864    0.4956524320   -0.1790836309          0.6079
H831       H    0.4593449058    0.5029408572   -0.2042676453         -0.3861
C832       C    0.5000000000    0.5000000000   -0.1165001917         -0.3877
C779       C    0.5000000000    0.5000000000    0.3834998083          0.6096
C780       C    0.5272271717    0.4991302601    0.3698989166          0.6104
C781       C    0.5293688147    0.4970572223    0.3395843757         -0.3875
C782       C    0.5047252098    0.4958724653    0.3214033174         -0.3863
C783       C    0.4774842800    0.4979657491    0.3353390332         -0.3882
C784       C    0.4754345142    0.4999928467    0.3656729548          0.6098
C785       C    0.5084604141    0.4888255994    0.2866665861         -0.3799
H786       H    0.5521714176    0.4953904806    0.3300665516          -0.386
H787       H    0.5481090584    0.4992827581    0.3832936416          0.6102
H788       H    0.4530154404    0.5010361552    0.3759914369          0.6088
F789       F    0.4514922178    0.4969560126    0.3196056403         -0.3872
O790       O    0.4848735774    0.4983097844    0.2643785024         -0.3878
C791       C    0.5319590122    0.5008811659    0.2382108718          0.6103
C792       C    0.5384441295    0.4997906668    0.2723179434          0.6109
C793       C    0.4839218880    0.5003194904    0.2045240982          0.6111
H794       H    0.5570380941    0.4840120453    0.2771397750         -0.3757
H795       H    0.5358440319    0.4784610637    0.2281981071         -0.3705
H796       H    0.5463185748    0.5175930253    0.2267834332          0.5961
H797       H    0.5446126166    0.5224107559    0.2805300004          0.5915
H798       H    0.4965986452    0.5342932988    0.2370048719          0.5818
C799       C    0.4982910228    0.5095661881    0.2355513120          0.6029
H800       H    0.5086523473    0.4640296566    0.2852280442         -0.3587
C801       C    0.5002416880    0.5003355772    0.1780152045         -0.3886
C802       C    0.4897101256    0.4969373145    0.1466873432         -0.3854
H803       H    0.5245655592    0.5043635147    0.1790836309          0.6079
H804       H    0.4593468234    0.4970327538    0.2042676453         -0.3861
C805       C    0.5000000000    0.5000000000    0.1165001917         -0.3877
C752       C    0.5000000000    0.8834998083    0.5000000000          0.6096
C753       C    0.4870049186    0.8698989166    0.4760583379          0.6104
C754       C    0.4877131456    0.8395843757    0.4731630771         -0.3875
C755       C    0.5011773411    0.8214033174    0.4938373693         -0.3863
C756       C    0.5131232021    0.8353390332    0.5184086227         -0.3882
C757       C    0.5124082458    0.8656729548    0.5212013815          0.6098
C758       C    0.5053744685    0.7866665861    0.4870554673         -0.3799
H759       H    0.4776398152    0.8300665516    0.4526383423          -0.386
H760       H    0.4763309036    0.8832936416    0.4581100273          0.6102
H761       H    0.5228260979    0.8759914369    0.5410803081          0.6088
F762       F    0.5271170983    0.8196056403    0.5403352671         -0.3872
O763       O    0.5090956874    0.7643785024    0.5122038502         -0.3878
C764       C    0.4831046266    0.7382108718    0.4728577586          0.6103
C765       C    0.4807718878    0.7723179434    0.4667092413          0.6109
C766       C    0.5078413713    0.7045240982    0.5140399664          0.6111
H767       H    0.4850047326    0.7771397750    0.4426929252         -0.3757
H768       H    0.5004963371    0.7281981071    0.4581852413         -0.3705
H769       H    0.4614293712    0.7267834332    0.4688996542          0.5961
H770       H    0.4581319592    0.7805300004    0.4728045096          0.5915
H771       H    0.4721151325    0.7370048719    0.5202492895          0.5818
C772       C    0.4926052310    0.7355513120    0.5063047560          0.6029
H773       H    0.5266814935    0.7852280442    0.4743713711         -0.3587
C774       C    0.4995883109    0.6780152045    0.4999607930         -0.3886
C775       C    0.5078386392    0.6466873432    0.5073360272         -0.3854
H776       H    0.4838312943    0.6790836309    0.4809978971          0.6079
H777       H    0.5230853982    0.7042676453    0.5335938940         -0.3861
C778       C    0.5000000000    0.6165001917    0.5000000000         -0.3877
C725       C    0.5000000000    1.1165001917    0.5000000000          0.6096
C726       C    0.4825395000    1.1301010834    0.5209094779          0.6104
C727       C    0.4826629736    1.1604156243    0.5238875435         -0.3875
C728       C    0.4999391602    1.1785966826    0.5062737906         -0.3863
C729       C    0.5164951709    1.1646609668    0.4845402083         -0.3882
C730       C    0.5163448901    1.1343270452    0.4816613057          0.6098
C731       C    0.5027167277    1.2133334139    0.5137500992         -0.3799
H732       H    0.4687405767    1.1699334484    0.5420232428          -0.386
H733       H    0.4685361968    1.1167063584    0.5364008932          0.6102
H734       H    0.5304777134    1.1240085631    0.4642266657          0.6088
F735       F    0.5345375830    1.1803943597    0.4658031266         -0.3872
O736       O    0.5113233384    1.2356214976    0.4898290857         -0.3878
C737       C    0.4780847217    1.2617891282    0.5232782192          0.6103
C738       C    0.4745854881    1.2276820566    0.5288461002          0.6109
C739       C    0.5104556669    1.2954759018    0.4877817026          0.6111
H740       H    0.4740000081    1.2228602250    0.5532255512         -0.3757
H741       H    0.4922420889    1.2718018929    0.5410917901         -0.3705
H742       H    0.4560545460    1.2732165668    0.5228849728          0.5961
H743       H    0.4535917726    1.2194699996    0.5184066283          0.5915
H744       H    0.4766550154    1.2629951281    0.4746502218          0.5818
C745       C    0.4939934834    1.2644486880    0.4923610003          0.6029
H746       H    0.5211046030    1.2147719558    0.5303862542         -0.3587
C747       C    0.4995886620    1.3219847955    0.4999572657         -0.3886
C748       C    0.5091311905    1.3533126568    0.4943535038         -0.3854
H749       H    0.4804020943    1.3209163691    0.5154411480          0.6079
H750       H    0.5292558472    1.2957323547    0.4716172459         -0.3861
C751       C    0.5000000000    1.3834998083    0.5000000000         -0.3877
C698       C    0.5000000000    0.8834998083    0.0000000000          0.6096
C699       C    0.4734616525    0.8698989166    0.0061474737          0.6104
C700       C    0.4708596874    0.8395843757    0.0046935486         -0.3875
C701       C    0.4943737083    0.8214033174   -0.0027765072         -0.3863
C702       C    0.5212393858    0.8353390332   -0.0077449542         -0.3882
C703       C    0.5237407604    0.8656729548   -0.0063118492          0.6098
C704       C    0.4889549885    0.7866665861   -0.0086286475         -0.3799
H705       H    0.4483931382    0.8300665516    0.0089351161          -0.386
H706       H    0.4533184026    0.8832936416    0.0116543727          0.6102
H707       H    0.5456766185    0.8759914369   -0.0110575304          0.6088
F708       F    0.5461016141    0.8196056403   -0.0153919449         -0.3872
O709       O    0.5141859130    0.7643785024   -0.0055159189         -0.3878
C710       C    0.4693377026    0.7382108718    0.0090541941          0.6103
C711       C    0.4627899368    0.7723179434    0.0096646835          0.6109
C712       C    0.5156215307    0.7045240982   -0.0038177925          0.6111
H713       H    0.4407691149    0.7771397750   -0.0008130939         -0.3757
H714       H    0.4598285174    0.7281981071   -0.0116177616         -0.3705
H715       H    0.4597483908    0.7267834332    0.0288917440          0.5961
H716       H    0.4626337137    0.7805300004    0.0331102429          0.5915
H717       H    0.5120890763    0.7370048719    0.0322715632          0.5818
C718       C    0.5041069717    0.7355513120    0.0088071188          0.6029
H719       H    0.4824054004    0.7852280442   -0.0325447197         -0.3587
C720       C    0.4998525367    0.6780152045    0.0003863673         -0.3886
C721       C    0.5091591227    0.6466873432   -0.0056010739         -0.3854
H722       H    0.4773772650    0.6790836309    0.0105223010          0.6079
H723       H    0.5385298168    0.7042676453   -0.0133018248         -0.3861
C724       C    0.5000000000    0.6165001917    0.0000000000         -0.3877
C671       C    0.5000000000    1.1165001917    0.0000000000          0.6096
C672       C    0.5124047579    1.1301010834   -0.0242527793          0.6104
C673       C    0.5116258271    1.1604156243   -0.0271298242         -0.3875
C674       C    0.4986720652    1.1785966826   -0.0061319441         -0.3863
C675       C    0.4873316341    1.1646609668    0.0187245382         -0.3882
C676       C    0.4881147816    1.1343270452    0.0214989471          0.6098
C677       C    0.4943100818    1.2133334139   -0.0128090073         -0.3799
H678       H    0.5211934045    1.1699334484   -0.0478951364          -0.386
H679       H    0.5226359463    1.1167063584   -0.0424571534          0.6102
H680       H    0.4781869675    1.1240085631    0.0416270834          0.6088
F681       F    0.4738790055    1.1803943597    0.0409873692         -0.3872
O682       O    0.4912059615    1.2356214976    0.0124229777         -0.3878
C683       C    0.5162254850    1.2617891282   -0.0275479318          0.6103
C684       C    0.5184069227    1.2276820566   -0.0337517423          0.6109
C685       C    0.4925048748    1.2954759018    0.0142278199          0.6111
H686       H    0.5135870946    1.2228602250   -0.0576571742         -0.3757
H687       H    0.4984796052    1.2718018929   -0.0417900562         -0.3705
H688       H    0.5377972879    1.2732165668   -0.0320357603          0.5961
H689       H    0.5411893558    1.2194699996   -0.0282128429          0.5915
H690       H    0.5283724856    1.2629951281    0.0195602051          0.5818
C691       C    0.5075469785    1.2644486880    0.0061217377          0.6029
H692       H    0.4726987663    1.2147719558   -0.0249674058         -0.3587
C693       C    0.5004106053    1.3219847955   -0.0000492791         -0.3886
C694       C    0.4923434005    1.3533126568    0.0075258251         -0.3854
H695       H    0.5156984191    1.3209163691   -0.0193924366          0.6079
H696       H    0.4777443735    1.2957323547    0.0341492666         -0.3861
C697       C    0.5000000000    1.3834998083    0.0000000000         -0.3877
C644       C    0.5000000000    1.0000000000   -0.1165001917          0.6096
C645       C    0.4727694653    1.0007571685   -0.1301010834          0.6104
C646       C    0.4706192701    1.0028213344   -0.1604156243         -0.3875
C647       C    0.4952577664    1.0041079642   -0.1785966826         -0.3863
C648       C    0.5225071175    1.0021273192   -0.1646609668         -0.3882
C649       C    0.5245652463    1.0001087132   -0.1343270452          0.6098
C650       C    0.4914934603    1.0111393276   -0.2133334139         -0.3799
H651       H    0.4478099713    1.0043937901   -0.1699334484          -0.386
H652       H    0.4518883875    1.0005183407   -0.1167063584          0.6102
H653       H    0.5469884418    0.9991580998   -0.1240085631          0.6088
F654       F    0.5484947830    1.0032445049   -0.1803943597         -0.3872
O655       O    0.5151193055    1.0017527377   -0.2356214976         -0.3878
C656       C    0.4680449039    0.9989867150   -0.2617891282          0.6103
C657       C    0.4615553337    1.0000503936   -0.2276820566          0.6109
C658       C    0.5160792955    0.9997469833   -0.2954759018          0.6111
H659       H    0.4428962951    1.0157520081   -0.2228602250         -0.3757
H660       H    0.4640672270    1.0213905639   -0.2718018929         -0.3705
H661       H    0.4537545551    0.9822156323   -0.2732165668          0.5961
H662       H    0.4554804165    0.9774049958   -0.2194699996          0.5915
H663       H    0.5035431029    0.9657210563   -0.2629951281          0.5818
C664       C    0.5017485117    0.9904409590   -0.2644486880          0.6029
H665       H    0.4911990161    1.0359342650   -0.2147719558         -0.3587
C666       C    0.4997597014    0.9996634265   -0.3219847955         -0.3886
C667       C    0.5102771246    1.0031052003   -0.3533126568         -0.3854
H668       H    0.4754526906    0.9955349623   -0.3209163691          0.6079
H669       H    0.5406405619    1.0031352914   -0.2957323547         -0.3861
C670       C    0.5000000000    1.0000000000   -0.3834998083         -0.3877
C617       C    0.5000000000    1.0000000000    0.1165001917          0.6096
C618       C    0.5272271717    1.0008697399    0.1301010834          0.6104
C619       C    0.5293688147    1.0029427777    0.1604156243         -0.3875
C620       C    0.5047252098    1.0041275347    0.1785966826         -0.3863
C621       C    0.4774842800    1.0020342509    0.1646609668         -0.3882
C622       C    0.4754345142    1.0000071533    0.1343270452          0.6098
C623       C    0.5084604141    1.0111744006    0.2133334139         -0.3799
H624       H    0.5521714176    1.0046095194    0.1699334484          -0.386
H625       H    0.5481090584    1.0007172419    0.1167063584          0.6102
H626       H    0.4530154404    0.9989638448    0.1240085631          0.6088
F627       F    0.4514922178    1.0030439874    0.1803943597         -0.3872
O628       O    0.4848735774    1.0016902156    0.2356214976         -0.3878
C629       C    0.5319590122    0.9991188341    0.2617891282          0.6103
C630       C    0.5384441295    1.0002093332    0.2276820566          0.6109
C631       C    0.4839218880    0.9996805096    0.2954759018          0.6111
H632       H    0.5570380941    1.0159879547    0.2228602250         -0.3757
H633       H    0.5358440319    1.0215389363    0.2718018929         -0.3705
H634       H    0.5463185748    0.9824069747    0.2732165668          0.5961
H635       H    0.5446126166    0.9775892441    0.2194699996          0.5915
H636       H    0.4965986452    0.9657067012    0.2629951281          0.5818
C637       C    0.4982910228    0.9904338119    0.2644486880          0.6029
H638       H    0.5086523473    1.0359703434    0.2147719558         -0.3587
C639       C    0.5002416880    0.9996644228    0.3219847955         -0.3886
C640       C    0.4897101256    1.0030626855    0.3533126568         -0.3854
H641       H    0.5245655592    0.9956364853    0.3209163691          0.6079
H642       H    0.4593468234    1.0029672462    0.2957323547         -0.3861
C643       C    0.5000000000    1.0000000000    0.3834998083         -0.3877
C590       C    0.6165001917    0.5000000000    0.5000000000          0.6096
C591       C    0.6301010834    0.4801870027    0.5186954663          0.6104
C592       C    0.6604156243    0.4772069277    0.5187526818         -0.3875
C593       C    0.6785966826    0.4937414254    0.5004409014         -0.3863
C594       C    0.6646609668    0.5144318221    0.4825983238         -0.3882
C595       C    0.6343270452    0.5173145408    0.4825738754          0.6098
C596       C    0.7133334139    0.4861105435    0.4981214807         -0.3799
H597       H    0.6699334484    0.4599482128    0.5337484641          -0.386
H598       H    0.6167063584    0.4655726151    0.5336117703          0.6102
H599       H    0.6240085631    0.5338607334    0.4674105355          0.6088
F600       F    0.6803943597    0.5320411533    0.4634536556         -0.3872
O601       O    0.7356214976    0.5094660620    0.4880811427         -0.3878
C602       C    0.7617891282    0.4780925610    0.5232855970          0.6103
C603       C    0.7276820566    0.4727469554    0.5271157974          0.6109
C604       C    0.7954759018    0.5115622610    0.4888231542          0.6111
H605       H    0.7228602250    0.4484477847    0.5291775250         -0.3757
H606       H    0.7718018929    0.4594538307    0.5102336970         -0.3705
H607       H    0.7732165668    0.4798200491    0.5452514584          0.5961
H608       H    0.7194699996    0.4844394006    0.5474383314          0.5915
H609       H    0.7629951281    0.5267178310    0.5217659611          0.5818
C610       C    0.7644486880    0.5079889390    0.5055325774          0.6029
H611       H    0.7147719558    0.4683907089    0.4807754991         -0.3587
C612       C    0.8219847955    0.5000675816    0.5004079925         -0.3886
C613       C    0.8533126568    0.5050827961    0.4905434286         -0.3854
H614       H    0.8209163691    0.4857748040    0.5204975793          0.6079
H615       H    0.7957323547    0.5265577763    0.4690780040         -0.3861
C616       C    0.8834998083    0.5000000000    0.5000000000         -0.3877
C563       C    1.1165001917    0.5000000000    0.5000000000          0.6096
C564       C    1.1301010834    0.5196437369    0.4811267670          0.6104
C565       C    1.1604156243    0.5226231754    0.4810427018         -0.3875
C566       C    1.1785966826    0.5062543478    0.4995027234         -0.3863
C567       C    1.1646609668    0.4857255621    0.5175310082         -0.3882
C568       C    1.1343270452    0.4828431808    0.5175814305          0.6098
C569       C    1.2133334139    0.5139058191    0.5017532916         -0.3799
H570       H    1.1699334484    0.5397460696    0.4658920180          -0.386
H571       H    1.1167063584    0.5341231273    0.4660793850          0.6102
H572       H    1.1240085631    0.4664342897    0.5328932447          0.6088
F573       F    1.1803943597    0.4682894495    0.5368335686         -0.3872
O574       O    1.2356214976    0.4906417176    0.5120036677         -0.3878
C575       C    1.2617891282    0.5216967340    0.4765179506          0.6103
C576       C    1.2276820566    0.5270076105    0.4726397389          0.6109
C577       C    1.2954759018    0.4885389178    0.5112805742          0.6111
H578       H    1.2228602250    0.5512872175    0.4703591465         -0.3757
H579       H    1.2718018929    0.5404523122    0.4894013758         -0.3705
H580       H    1.2732165668    0.5197713919    0.4545685465          0.5961
H581       H    1.2194699996    0.5151325230    0.4524233851          0.5915
H582       H    1.2629951281    0.4730871307    0.4784756644          0.5818
C583       C    1.2644486880    0.4919615339    0.4945396318          0.6029
H584       H    1.2147719558    0.5317812309    0.5189389039         -0.3587
C585       C    1.3219847955    0.4999287449    0.4995926330         -0.3886
C586       C    1.3533126568    0.4950026190    0.5095019862         -0.3854
H587       H    1.3209163691    0.5140399244    0.4793750762          0.6079
H588       H    1.2957323547    0.4737219255    0.5311600405         -0.3861
C589       C    1.3834998083    0.5000000000    0.5000000000         -0.3877
C536       C    0.6165001917    0.5000000000    0.0000000000          0.6096
C537       C    0.6301010834    0.4787730514   -0.0170731361          0.6104
C538       C    0.6604156243    0.4783092469   -0.0200174537         -0.3875
C539       C    0.6785966826    0.4987082121   -0.0061396607         -0.3863
C540       C    0.6646609668    0.5192101352    0.0119191664         -0.3882
C541       C    0.6343270452    0.5196281795    0.0147715170          0.6098
C542       C    0.7133334139    0.4999633869   -0.0140158659         -0.3799
H543       H    0.6699334484    0.4610962499   -0.0350656914          -0.386
H544       H    0.6167063584    0.4620000444   -0.0295126974          0.6102
H545       H    0.6240085631    0.5369098212    0.0290910219          0.6088
F546       F    0.6803943597    0.5405810184    0.0267479296         -0.3872
O547       O    0.7356214976    0.5131003213    0.0077490046         -0.3878
C548       C    0.7617891282    0.4739398234   -0.0185208560          0.6103
C549       C    0.7276820566    0.4694152402   -0.0232930758          0.6109
C550       C    0.7954759018    0.5126516407    0.0099269203          0.6111
H551       H    0.7228602250    0.4640531917   -0.0470827553         -0.3757
H552       H    0.7718018929    0.4843230045   -0.0387679276         -0.3705
H553       H    0.7732165668    0.4524159138   -0.0138086802          0.5961
H554       H    0.7194699996    0.4508806213   -0.0089338778          0.5915
H555       H    0.7629951281    0.4820881929    0.0294409023          0.5818
C556       C    0.7644486880    0.4956107110    0.0086698731          0.6029
H557       H    0.7147719558    0.5147259244   -0.0339392968         -0.3587
C558       C    0.8219847955    0.4996050655    0.0001226862         -0.3886
C559       C    0.8533126568    0.5100622979    0.0037432230         -0.3854
H560       H    0.8209163691    0.4777512169   -0.0112915282          0.6079
H561       H    0.7957323547    0.5342602873    0.0220843392         -0.3861
C562       C    0.8834998083    0.5000000000    0.0000000000         -0.3877
C509       C    1.1165001917    0.5000000000    0.0000000000          0.6096
C510       C    1.1301010834    0.4884077147    0.0246514552          0.6104
C511       C    1.1604156243    0.4856555133    0.0257957927         -0.3875
C512       C    1.1785966826    0.4943374248    0.0027017387         -0.3863
C513       C    1.1646609668    0.5070584543   -0.0214772914         -0.3882
C514       C    1.1343270452    0.5097320564   -0.0225554920          0.6098
C515       C    1.2133334139    0.4863871935    0.0033372648         -0.3799
H516       H    1.1699334484    0.4750855853    0.0460692568          -0.386
H517       H    1.1167063584    0.4802694023    0.0438827922          0.6102
H518       H    1.1240085631    0.5195775892   -0.0427240033          0.6088
F519       F    1.1803943597    0.5164356215   -0.0457399293         -0.3872
O520       O    1.2356214976    0.5044449226   -0.0145570654         -0.3878
C521       C    1.2617891282    0.4881392878    0.0296897022          0.6103
C522       C    1.2276820566    0.4845672124    0.0352111343          0.6109
C523       C    1.2954759018    0.5066672420   -0.0146340577          0.6111
H524       H    1.2228602250    0.4627101463    0.0460263586         -0.3757
H525       H    1.2718018929    0.4660160696    0.0243682760         -0.3705
H526       H    1.2732165668    0.4977891864    0.0494978506          0.5961
H527       H    1.2194699996    0.5028884671    0.0498415920          0.5915
H528       H    1.2629951281    0.5328318154    0.0104724142          0.5818
C529       C    1.2644486880    0.5094598592    0.0022234255          0.6029
H530       H    1.2147719558    0.4635468743   -0.0063165133         -0.3587
C531       C    1.3219847955    0.5002122673    0.0003549193         -0.3886
C532       C    1.3533126568    0.5012675312   -0.0106609063         -0.3854
H533       H    1.3209163691    0.4942673275    0.0242825745          0.6079
H534       H    1.2957323547    0.5133922326   -0.0384984861         -0.3861
C535       C    1.3834998083    0.5000000000    0.0000000000         -0.3877
C482       C    1.0000000000    0.5000000000   -0.3834998083          0.6096
C483       C    0.9971008904    0.5270863524   -0.3698989166          0.6104
C484       C    0.9948738153    0.5290673262   -0.3395843757         -0.3875
C485       C    0.9955313608    0.5044040224   -0.3214033174         -0.3863
C486       C    0.9996516294    0.4773952558   -0.3353390332         -0.3882
C487       C    1.0018260363    0.4755024749   -0.3656729548          0.6098
C488       C    0.9882254081    0.5076029483   -0.2866665861         -0.3799
H489       H    0.9915101042    0.5516819713   -0.3300665516          -0.386
H490       H    0.9956946777    0.5479213954   -0.3832936416          0.6102
H491       H    1.0045394320    0.4532237666   -0.3759914369          0.6088
F492       F    1.0005843345    0.4514003154   -0.3196056403         -0.3872
O493       O    0.9994432880    0.4847896232   -0.2643785024         -0.3878
C494       C    0.9984938064    0.5319356586   -0.2382108718          0.6103
C495       C    0.9969224039    0.5383213167   -0.2723179434          0.6109
C496       C    1.0015184092    0.4839905592   -0.2045240982          0.6111
H497       H    0.9798002249    0.5556859763   -0.2771397750         -0.3757
H498       H    0.9758463020    0.5341367730   -0.2281981071         -0.3705
H499       H    1.0140875041    0.5475022856   -0.2267834332          0.5961
H500       H    1.0190191068    0.5461606013   -0.2805300004          0.5915
H501       H    1.0344515028    0.4991672249   -0.2370048719          0.5818
C502       C    1.0096670456    0.4990096530   -0.2355513120          0.6029
H503       H    0.9634842797    0.5059439792   -0.2852280442         -0.3587
C504       C    1.0003166059    0.5002660561   -0.1780152045         -0.3886
C505       C    0.9977137234    0.4895102670   -0.1466873432         -0.3854
H506       H    1.0025181731    0.5248226865   -0.1790836309          0.6079
H507       H    1.0000747213    0.4592387471   -0.2042676453         -0.3861
C508       C    1.0000000000    0.5000000000   -0.1165001917         -0.3877
C455       C    1.0000000000    0.5000000000    0.3834998083          0.6096
C456       C    1.0272271717    0.4991302601    0.3698989166          0.6104
C457       C    1.0293688147    0.4970572223    0.3395843757         -0.3875
C458       C    1.0047252098    0.4958724653    0.3214033174         -0.3863
C459       C    0.9774842800    0.4979657491    0.3353390332         -0.3882
C460       C    0.9754345142    0.4999928467    0.3656729548          0.6098
C461       C    1.0084604141    0.4888255994    0.2866665861         -0.3799
H462       H    1.0521714176    0.4953904806    0.3300665516          -0.386
H463       H    1.0481090584    0.4992827581    0.3832936416          0.6102
H464       H    0.9530154404    0.5010361552    0.3759914369          0.6088
F465       F    0.9514922178    0.4969560126    0.3196056403         -0.3872
O466       O    0.9848735774    0.4983097844    0.2643785024         -0.3878
C467       C    1.0319590122    0.5008811659    0.2382108718          0.6103
C468       C    1.0384441295    0.4997906668    0.2723179434          0.6109
C469       C    0.9839218880    0.5003194904    0.2045240982          0.6111
H470       H    1.0570380941    0.4840120453    0.2771397750         -0.3757
H471       H    1.0358440319    0.4784610637    0.2281981071         -0.3705
H472       H    1.0463185748    0.5175930253    0.2267834332          0.5961
H473       H    1.0446126166    0.5224107559    0.2805300004          0.5915
H474       H    0.9965986452    0.5342932988    0.2370048719          0.5818
C475       C    0.9982910228    0.5095661881    0.2355513120          0.6029
H476       H    1.0086523473    0.4640296566    0.2852280442         -0.3587
C477       C    1.0002416880    0.5003355772    0.1780152045         -0.3886
C478       C    0.9897101256    0.4969373145    0.1466873432         -0.3854
H479       H    1.0245655592    0.5043635147    0.1790836309          0.6079
H480       H    0.9593468234    0.4970327538    0.2042676453         -0.3861
C481       C    1.0000000000    0.5000000000    0.1165001917         -0.3877
C428       C    1.0000000000   -0.1165001917    0.5000000000          0.6096
C429       C    1.0272271717   -0.1301010834    0.5008697399          0.6104
C430       C    1.0293688147   -0.1604156243    0.5029427777         -0.3875
C431       C    1.0047252098   -0.1785966826    0.5041275347         -0.3863
C432       C    0.9774842800   -0.1646609668    0.5020342509         -0.3882
C433       C    0.9754345142   -0.1343270452    0.5000071533          0.6098
C434       C    1.0084604141   -0.2133334139    0.5111744006         -0.3799
H435       H    1.0521714176   -0.1699334484    0.5046095194          -0.386
H436       H    1.0481090584   -0.1167063584    0.5007172419          0.6102
H437       H    0.9530154404   -0.1240085631    0.4989638448          0.6088
F438       F    0.9514922178   -0.1803943597    0.5030439874         -0.3872
O439       O    0.9848735774   -0.2356214976    0.5016902156         -0.3878
C440       C    1.0319590122   -0.2617891282    0.4991188341          0.6103
C441       C    1.0384441295   -0.2276820566    0.5002093332          0.6109
C442       C    0.9839218880   -0.2954759018    0.4996805096          0.6111
H443       H    1.0570380941   -0.2228602250    0.5159879547         -0.3757
H444       H    1.0358440319   -0.2718018929    0.5215389363         -0.3705
H445       H    1.0463185748   -0.2732165668    0.4824069747          0.5961
H446       H    1.0446126166   -0.2194699996    0.4775892441          0.5915
H447       H    0.9965986452   -0.2629951281    0.4657067012          0.5818
C448       C    0.9982910228   -0.2644486880    0.4904338119          0.6029
H449       H    1.0086523473   -0.2147719558    0.5359703434         -0.3587
C450       C    1.0002416880   -0.3219847955    0.4996644228         -0.3886
C451       C    0.9897101256   -0.3533126568    0.5030626855         -0.3854
H452       H    1.0245655592   -0.3209163691    0.4956364853          0.6079
H453       H    0.9593468234   -0.2957323547    0.5029672462         -0.3861
C454       C    1.0000000000   -0.3834998083    0.5000000000         -0.3877
C401       C    1.0000000000    0.3834998083    0.5000000000          0.6096
C402       C    1.0122899350    0.3698989166    0.5243111666          0.6104
C403       C    1.0114974082    0.3395843757    0.5271844960         -0.3875
C404       C    0.9986430839    0.3214033174    0.5061255962         -0.3863
C405       C    0.9874203186    0.3353390332    0.4812157662         -0.3882
C406       C    0.9882165766    0.3656729548    0.4784450916          0.6114
C407       C    0.9942495754    0.2866665861    0.5127819582         -0.3799
H408       H    1.0209666855    0.3300665516    0.5479948183          -0.386
H409       H    1.0224349258    0.3832936416    0.5425637174          0.6102
H410       H    0.9783840536    0.3759914369    0.4582702346          0.6088
F411       F    0.9740731148    0.3196056403    0.4588895705         -0.3872
O412       O    0.9912648044    0.2643785024    0.4875355768         -0.3878
C413       C    1.0160950376    0.2382108718    0.5276243494          0.6103
C414       C    1.0182471149    0.2723179434    0.5338384058          0.6109
C415       C    0.9925722378    0.2045240982    0.4857368969          0.6111
H416       H    1.0133142989    0.2771397750    0.5577207789         -0.3757
H417       H    0.9982820094    0.2281981071    0.5417823995         -0.3705
H418       H    1.0376453777    0.2267834332    0.5322141343          0.5961
H419       H    1.0410554851    0.2805300004    0.5284072998          0.5915
H420       H    1.0284646628    0.2370048719    0.4805741787          0.5818
C421       C    1.0075758421    0.2355513120    0.4939140182          0.6029
H422       H    0.9725810081    0.2852280442    0.5248380272         -0.3587
C423       C    1.0004103677    0.1780152045    0.5000512202         -0.3886
C424       C    0.9923790735    0.1466873432    0.4924380533         -0.3854
H425       H    1.0156065424    0.1790836309    0.5194664530          0.6079
H426       H    0.9779061042    0.2042676453    0.4657458749         -0.3861
C427       C    1.0000000000    0.1165001917    0.5000000000         -0.3877
C374       C    0.8834998083   -0.0000000000    0.5000000000          0.6096
C375       C    0.8698989166   -0.0171585891    0.4788420666          0.6104
C376       C    0.8395843757   -0.0201047529    0.4783901381         -0.3875
C377       C    0.8214033174   -0.0061448196    0.4987329791         -0.3863
C378       C    0.8353390332    0.0119965291    0.5191619183         -0.3882
C379       C    0.8656729548    0.0148505421    0.5195684579          0.6098
C380       C    0.7866665861   -0.0140158996    0.5000199023         -0.3799
H381       H    0.8300665516   -0.0352222749    0.4612379588          -0.386
H382       H    0.8832936416   -0.0296656818    0.4621193550          0.6102
H383       H    0.8759914369    0.0292396140    0.5367922197          0.6088
F384       F    0.8196056403    0.0269113438    0.5404728349         -0.3872
O385       O    0.7643785024    0.0078017650    0.5130689691         -0.3878
C386       C    0.7382108718   -0.0186257859    0.4740147155          0.6103
C387       C    0.7723179434   -0.0234162110    0.4695094117          0.6109
C388       C    0.7045240982    0.0099778539    0.5126115103          0.6111
H389       H    0.7771397750   -0.0472273181    0.4642433321         -0.3757
H390       H    0.7281981071   -0.0388308256    0.4844794528         -0.3705
H391       H    0.7267834332   -0.0140004376    0.4524719803          0.5961
H392       H    0.7805300004   -0.0091318654    0.4509170440          0.5915
H393       H    0.7370048719    0.0293684386    0.4819696263          0.5818
C394       C    0.7355513120    0.0086521041    0.4955757879          0.6029
H395       H    0.7852280442   -0.0338796427    0.5148626555         -0.3587
C396       C    0.6780152045    0.0001210928    0.4996045740         -0.3886
C397       C    0.6466873432    0.0037837660    0.5100471226         -0.3854
H398       H    0.6790836309   -0.0113811485    0.4777969277          0.6079
H399       H    0.7042676453    0.0222223048    0.5341709598         -0.3861
C400       C    0.6165001917   -0.0000000000    0.5000000000         -0.3877
C347       C    1.1165001917   -0.0000000000    0.5000000000          0.6096
C348       C    1.1301010834    0.0081198667    0.5260027516          0.6104
C349       C    1.1604156243    0.0068651143    0.5287064004         -0.3875
C350       C    1.1785966826   -0.0023468650    0.5058186231         -0.3863
C351       C    1.1646609668   -0.0093155648    0.4794010661         -0.3882
C352       C    1.1343270452   -0.0080740322    0.4767992857          0.6098
C353       C    1.2133334139   -0.0077762693    0.5116608521         -0.3799
H354       H    1.1699334484    0.0127791586    0.5507917079          -0.386
H355       H    1.1167063584    0.0151214933    0.5456764313          0.6102
H356       H    1.1240085631   -0.0144509832    0.4552809711          0.6088
F357       F    1.1803943597   -0.0188050621    0.4551821416         -0.3872
O358       O    1.2356214976   -0.0065639737    0.4862675662         -0.3878
C359       C    1.2617891282    0.0113275965    0.5298971649          0.6103
C360       C    1.2276820566    0.0124272820    0.5363807308          0.6109
C361       C    1.2954759018   -0.0049782613    0.4847086732          0.6111
H362       H    1.2228602250    0.0036299914    0.5591251388         -0.3757
H363       H    1.2718018929   -0.0085732324    0.5409294525         -0.3705
H364       H    1.2732165668    0.0318282652    0.5379721799          0.5961
H365       H    1.2194699996    0.0358185658    0.5347786986          0.5915
H366       H    1.2629951281    0.0312743631    0.4855254095          0.5818
C367       C    1.2644486880    0.0084744133    0.4952442795          0.6029
H368       H    1.2147719558   -0.0311339778    0.5199850980         -0.3587
C369       C    1.3219847955    0.0003963359    0.5001180806         -0.3886
C370       C    1.3533126568   -0.0062720087    0.4912865928         -0.3854
H371       H    1.3209163691    0.0121888104    0.5217701599          0.6079
H372       H    1.2957323547   -0.0161531341    0.4625759225         -0.3861
C373       C    1.3834998083   -0.0000000000    0.5000000000         -0.3877
C320       C   -0.0000000000   -0.3834998083    0.0000000000          0.6096
C321       C    0.0036232234   -0.3698989166    0.0269990292          0.6104
C322       C    0.0059025348   -0.3395843757    0.0289196698         -0.3875
C323       C    0.0045849415   -0.3214033174    0.0042828100         -0.3863
C324       C   -0.0002569261   -0.3353390332   -0.0226059685         -0.3882
C325       C   -0.0024812270   -0.3656729548   -0.0244398579          0.6098
C326       C    0.0119739168   -0.2866665861    0.0072849951         -0.3799
H327       H    0.0098704770   -0.3300665516    0.0514361562          -0.386
H328       H    0.0055867257   -0.3832936416    0.0477889572          0.6102
H329       H   -0.0057900933   -0.3759914369   -0.0466379382          0.6088
F330       F   -0.0018852307   -0.3196056403   -0.0485666212         -0.3872
O331       O    0.0001493018   -0.2643785024   -0.0152198291         -0.3878
C332       C    0.0023606319   -0.2382108718    0.0318838882          0.6103
C333       C    0.0041024273   -0.2723179434    0.0382251880          0.6109
C334       C   -0.0019464681   -0.2045240982   -0.0159630518          0.6111
H335       H    0.0216833540   -0.2771397750    0.0551252304         -0.3757
H336       H    0.0250589466   -0.2281981071    0.0334778971         -0.3705
H337       H   -0.0128107285   -0.2267834332    0.0478624085          0.5961
H338       H   -0.0177764830   -0.2805300004    0.0466532334          0.5915
H339       H   -0.0344614493   -0.2370048719    0.0000898554          0.5818
C340       C   -0.0096900941   -0.2355513120   -0.0007311869          0.6029
H341       H    0.0366617635   -0.2852280442    0.0049642536         -0.3587
C342       C   -0.0003093696   -0.1780152045    0.0002744369         -0.3886
C343       C    0.0020046271   -0.1466873432   -0.0105471811         -0.3854
H344       H   -0.0018527201   -0.1790836309    0.0248812055          0.6079
H345       H   -0.0011659505   -0.2042676453   -0.0407446424         -0.3861
C346       C   -0.0000000000   -0.1165001917    0.0000000000         -0.3877
C293       C    0.0000000000    0.3834998083    0.0000000000          0.6096
C294       C    0.0009196409    0.3698989166   -0.0272255318          0.6104
C295       C    0.0029966004    0.3395843757   -0.0293633718         -0.3875
C296       C    0.0041361882    0.3214033174   -0.0047176368         -0.3863
C297       C    0.0019929803    0.3353390332    0.0225194106         -0.3882
C298       C   -0.0000378708    0.3656729548    0.0245654576          0.6098
C299       C    0.0111898883    0.2866665861   -0.0084399193         -0.3799
H300       H    0.0047051324    0.3300665516   -0.0521628816          -0.386
H301       H    0.0008054159    0.3832936416   -0.0481076630          0.6102
H302       H   -0.0011222676    0.3759914369    0.0469825816          0.6088
F303       F    0.0029550763    0.3196056403    0.0485132798         -0.3872
O304       O    0.0016624888    0.2643785024    0.0151294950         -0.3878
C305       C   -0.0008225893    0.2382108718   -0.0319605735          0.6103
C306       C    0.0002797940    0.2723179434   -0.0384436812          0.6109
C307       C   -0.0003489581    0.2045240982    0.0160774995          0.6111
H308       H    0.0160924683    0.2771397750   -0.0570086953         -0.3757
H309       H    0.0216045957    0.2281981071   -0.0358044947         -0.3705
H310       H   -0.0175081022    0.2267834332   -0.0463507418          0.5961
H311       H   -0.0223289514    0.2805300004   -0.0446536165          0.5915
H312       H   -0.0342994753    0.2370048719    0.0033384957          0.5818
C313       C   -0.0095693043    0.2355513120    0.0016914413          0.6029
H314       H    0.0359861411    0.2852280442   -0.0085864057         -0.3587
C315       C   -0.0003351337    0.1780152045   -0.0002423026         -0.3886
C316       C    0.0030438209    0.1466873432    0.0102954705         -0.3854
H317       H   -0.0043184832    0.1790836309   -0.0245735155          0.6079
H318       H    0.0028927313    0.2042676453    0.0406585468         -0.3861
C319       C    0.0000000000    0.1165001917   -0.0000000000         -0.3877
C266       C   -0.3834998083   -0.0000000000    0.0000000000          0.6096
C267       C   -0.3698989166    0.0063979335    0.0264790818          0.6104
C268       C   -0.3395843757    0.0049686566    0.0290946674         -0.3875
C269       C   -0.3214033174   -0.0027232261    0.0056522730         -0.3863
C270       C   -0.3353390332   -0.0079452781   -0.0211652635         -0.3882
C271       C   -0.3656729548   -0.0065358700   -0.0236800664          0.6098
C272       C   -0.2866665861   -0.0085239092    0.0111260419         -0.3799
H273       H   -0.3300665516    0.0094222986    0.0515201395          -0.386
H274       H   -0.3832936416    0.0120949000    0.0465694034          0.6102
H275       H   -0.3759914369   -0.0114885892   -0.0455701083          0.6088
F276       F   -0.3196056403   -0.0158268256   -0.0459541334         -0.3872
O277       O   -0.2643785024   -0.0056497011   -0.0141331655         -0.3878
C278       C   -0.2382108718    0.0093434872    0.0305753849          0.6103
C279       C   -0.2723179434    0.0100158125    0.0371170905          0.6109
C280       C   -0.2045240982   -0.0039652142   -0.0155847630          0.6111
H281       H   -0.2771397750   -0.0002534447    0.0592359235         -0.3757
H282       H   -0.2281981071   -0.0112377032    0.0402794541         -0.3705
H283       H   -0.2267834332    0.0292707514    0.0399768436          0.5961
H284       H   -0.2805300004    0.0334618015    0.0370517931          0.5915
H285       H   -0.2370048719    0.0321559053   -0.0123934383          0.5818
C286       C   -0.2355513120    0.0087679230   -0.0041899980          0.6029
H287       H   -0.2852280442   -0.0323770335    0.0179012966         -0.3587
C288       C   -0.1780152045    0.0003877433    0.0001438063         -0.3886
C289       C   -0.1466873432   -0.0056873592   -0.0091057950         -0.3854
H290       H   -0.1790836309    0.0107355708    0.0225223107          0.6079
H291       H   -0.2042676453   -0.0136652605   -0.0384024215         -0.3861
C292       C   -0.1165001917   -0.0000000000    0.0000000000         -0.3877
C239       C    0.1165001917   -0.0000000000    0.0000000000          0.6096
C240       C    0.1301010834   -0.0248713155    0.0111127400          0.6104
C241       C    0.1604156243   -0.0277034376    0.0101836518         -0.3875
C242       C    0.1785966826   -0.0060536625   -0.0016484297         -0.3863
C243       C    0.1646609668    0.0193645741   -0.0116665802         -0.3882
C244       C    0.1343270452    0.0220939804   -0.0107386764          0.6098
C245       C    0.2133334139   -0.0124922030   -0.0063553679         -0.3799
H246       H    0.1699334484   -0.0489429687    0.0186464555          -0.386
H247       H    0.1167063584   -0.0435883323    0.0203728551          0.6102
H248       H    0.1240085631    0.0427161527   -0.0195947124          0.6088
F249       F    0.1803943597    0.0423037747   -0.0239303455         -0.3872
O250       O    0.2356214976    0.0128680685   -0.0081288561         -0.3878
C251       C    0.2617891282   -0.0283627520    0.0147549724          0.6103
C252       C    0.2276820566   -0.0346726546    0.0166072856          0.6109
C253       C    0.2954759018    0.0146021370   -0.0067368655          0.6111
H254       H    0.2228602250   -0.0582916779    0.0105375119         -0.3757
H255       H    0.2718018929   -0.0416523590   -0.0037150223         -0.3705
H256       H    0.2732165668   -0.0339783159    0.0360610449          0.5961
H257       H    0.2194699996   -0.0303389907    0.0396493780          0.5915
H258       H    0.2629951281    0.0180417387    0.0293614582          0.5818
C259       C    0.2644486880    0.0057165609    0.0078583389          0.6029
H260       H    0.2147719558   -0.0234977750   -0.0285759214         -0.3587
C261       C    0.3219847955   -0.0000707948    0.0004074472         -0.3886
C262       C    0.3533126568    0.0079178959   -0.0072504126         -0.3854
H263       H    0.3209163691   -0.0201908265    0.0146573356          0.6079
H264       H    0.2957323547    0.0352719397   -0.0204297722         -0.3861
C265       C    0.3834998083   -0.0000000000    0.0000000000         -0.3877
C212       C   -0.0000000000    0.0000000000   -0.3834998083          0.6096
C213       C    0.0097901326    0.0254210273   -0.3698989166          0.6104
C214       C    0.0087134711    0.0282004014   -0.3395843757         -0.3875
C215       C   -0.0019643342    0.0059586526   -0.3214033174         -0.3863
C216       C   -0.0106326438   -0.0199510077   -0.3353390332         -0.3882
C217       C   -0.0095625639   -0.0226278703   -0.3656729548          0.6098
C218       C   -0.0070031786    0.0121408948   -0.2866665861         -0.3799
H219       H    0.0160482183    0.0498553826   -0.3300665516          -0.386
H220       H    0.0180536735    0.0445988880   -0.3832936416          0.6102
H221       H   -0.0173224485   -0.0436870145   -0.3759914369          0.6088
F222       F   -0.0216737634   -0.0435030892   -0.3196056403         -0.3872
O223       O   -0.0074412689   -0.0132775377   -0.2643785024         -0.3878
C224       C    0.0132438190    0.0290990751   -0.2382108718          0.6103
C225       C    0.0147619208    0.0354976141   -0.2723179434          0.6109
C226       C   -0.0059600590   -0.0149360456   -0.2045240982          0.6111
H227       H    0.0074591112    0.0587649601   -0.2771397750         -0.3757
H228       H   -0.0058991528    0.0413995217   -0.2281981071         -0.3705
H229       H    0.0342252847    0.0358267329   -0.2267834332          0.5961
H230       H    0.0379999423    0.0323810426   -0.2805300004          0.5915
H231       H    0.0302691546   -0.0164735498   -0.2370048719          0.5818
C232       C    0.0081479415   -0.0052956215   -0.2355513120          0.6029
H233       H   -0.0297714752    0.0219633326   -0.2852280442         -0.3587
C234       C    0.0004031630    0.0000921126   -0.1780152045         -0.3886
C235       C   -0.0068242227   -0.0082880361   -0.1466873432         -0.3854
H236       H    0.0135758371    0.0209333133   -0.1790836309          0.6079
H237       H   -0.0185476250   -0.0362969824   -0.2042676453         -0.3861
C238       C    0.0000000000    0.0000000000   -0.1165001917         -0.3877
C185       C   -0.0000000000    0.0000000000    0.1165001917          0.6096
C186       C    0.0104652410    0.0251506273    0.1301010834          0.6104
C187       C    0.0094631568    0.0279577518    0.1604156243         -0.3875
C188       C   -0.0018045719    0.0060089658    0.1785966826         -0.3863
C189       C   -0.0111614336   -0.0196600667    0.1646609668         -0.3882
C190       C   -0.0101631920   -0.0223645405    0.1343270452          0.6098
C191       C   -0.0066765900    0.0123235134    0.2133334139         -0.3799
H192       H    0.0173733553    0.0494092199    0.1699334484          -0.386
H193       H    0.0192377773    0.0441010642    0.1167063584          0.6102
H194       H   -0.0184824710   -0.0432090352    0.1240085631          0.6088
F195       F   -0.0228273256   -0.0429090200    0.1803943597         -0.3872
O196       O   -0.0077930521   -0.0130741664    0.2356214976         -0.3878
C197       C    0.0140158798    0.0287351705    0.2617891282          0.6103
C198       C    0.0157042452    0.0350909047    0.2276820566          0.6109
C199       C   -0.0063566428   -0.0147716232    0.2954759018          0.6111
H200       H    0.0090251443    0.0585449028    0.2228602250         -0.3757
H201       H   -0.0047919182    0.0415422426    0.2718018929         -0.3705
H202       H    0.0351694589    0.0349003448    0.2732165668          0.5961
H203       H    0.0388507910    0.0313551204    0.2194699996          0.5915
H204       H    0.0298186176   -0.0172756941    0.2629951281          0.5818
C205       C    0.0080036748   -0.0055112382    0.2644486880          0.6029
H206       H   -0.0291745695    0.0227502354    0.2147719558         -0.3587
C207       C    0.0004054782    0.0000813176    0.3219847955         -0.3886
C208       C   -0.0070430344   -0.0081029146    0.3533126568         -0.3854
H209       H    0.0141298000    0.0205634557    0.3209163691          0.6079
H210       H   -0.0195099390   -0.0357889313    0.2957323547         -0.3861
C211       C    0.0000000000    0.0000000000    0.3834998083         -0.3877
loop_
_geom_bond_atom_site_label_1
_geom_bond_atom_site_label_2
_geom_bond_distance
_geom_bond_site_symmetry_2
_ccdc_geom_bond_type
Zn1          O5 1.942       .   S
Zn1          O6 1.922       .   S
Zn1         O10 1.922       .   S
Zn1         O17 1.922       .   S
Zn2          O5 1.942       .   S
Zn2          O7 1.922       .   S
Zn2          O9 1.922       .   S
Zn2         O13 1.922       .   S
Zn3          O5 1.942       .   S
Zn3          O8 1.922       .   S
Zn3         O11 1.922       .   S
Zn3         O14 1.922       .   S
Zn4          O5 1.942       .   S
Zn4         O12 1.922       .   S
Zn4         O15 1.922       .   S
Zn4         O16 1.922       .   S
O6          C18 1.304       .   A
O7          C19 1.304       .   A
O8          C20 1.304       .   A
O9          C18 1.304       .   A
O10         C20 1.304       .   A
O11         C19 1.304       .   A
O12         C21 1.304       .   A
O13         C22 1.304       .   A
O14         C21 1.304       .   A
O15         C22 1.304       .   A
O16         C23 1.304       .   A
O17         C23 1.304       .   A
C18        C292 1.540       .   S
C19        C319 1.540       .   S
C20        C185 1.540       .   S
C21        C239 1.540       .   S
C22        C238 1.540       .   S
C23        C346 1.540       .   S
Zn24        O28 1.942       .   S
Zn24        O29 1.922       .   S
Zn24        O33 1.922       .   S
Zn24        O40 1.922       .   S
Zn25        O28 1.942       .   S
Zn25        O30 1.922       .   S
Zn25        O32 1.922       .   S
Zn25        O36 1.922       .   S
Zn26        O28 1.942       .   S
Zn26        O31 1.922       .   S
Zn26        O34 1.922       .   S
Zn26        O37 1.922       .   S
Zn27        O28 1.942       .   S
Zn27        O35 1.922       .   S
Zn27        O38 1.922       .   S
Zn27        O39 1.922       .   S
O29         C41 1.304       .   A
O30         C42 1.304       .   A
O31         C43 1.304       .   A
O32         C41 1.304       .   A
O33         C43 1.304       .   A
O34         C42 1.304       .   A
O35         C44 1.304       .   A
O36         C45 1.304       .   A
O37         C44 1.304       .   A
O38         C45 1.304       .   A
O39         C46 1.304       .   A
O40         C46 1.304       .   A
C41        C211 1.540   1_655   S
C42        C347 1.540       .   S
C43        C427 1.540       .   S
C44        C212 1.540   1_656   S
C45        C428 1.540       .   S
C46        C374 1.540       .   S
Zn47        O51 1.942       .   S
Zn47        O52 1.922       .   S
Zn47        O56 1.922       .   S
Zn47        O63 1.922       .   S
Zn48        O51 1.942       .   S
Zn48        O53 1.922       .   S
Zn48        O55 1.922       .   S
Zn48        O59 1.922       .   S
Zn49        O51 1.942       .   S
Zn49        O54 1.922       .   S
Zn49        O57 1.922       .   S
Zn49        O60 1.922       .   S
Zn50        O51 1.942       .   S
Zn50        O58 1.922       .   S
Zn50        O61 1.922       .   S
Zn50        O62 1.922       .   S
O52         C64 1.304       .   A
O53         C65 1.304       .   A
O54         C66 1.304       .   A
O55         C64 1.304       .   A
O56         C66 1.304       .   A
O57         C65 1.304       .   A
O58         C67 1.304       .   A
O59         C68 1.304       .   A
O60         C67 1.304       .   A
O61         C68 1.304       .   A
O62         C69 1.304       .   A
O63         C69 1.304       .   A
C64        C293 1.540   1_655   S
C65        C562 1.540       .   S
C66        C481 1.540       .   S
C67        C320 1.540   1_665   S
C68        C508 1.540       .   S
C69        C509 1.540       .   S
Zn70        O74 1.942       .   S
Zn70        O75 1.922       .   S
Zn70        O79 1.922       .   S
Zn70        O86 1.922       .   S
Zn71        O74 1.942       .   S
Zn71        O76 1.922       .   S
Zn71        O78 1.922       .   S
Zn71        O82 1.922       .   S
Zn72        O74 1.942       .   S
Zn72        O77 1.922       .   S
Zn72        O80 1.922       .   S
Zn72        O83 1.922       .   S
Zn73        O74 1.942       .   S
Zn73        O81 1.922       .   S
Zn73        O84 1.922       .   S
Zn73        O85 1.922       .   S
O75         C87 1.304       .   A
O76         C88 1.304       .   A
O77         C89 1.304       .   A
O78         C87 1.304       .   A
O79         C89 1.304       .   A
O80         C88 1.304       .   A
O81         C90 1.304       .   A
O82         C91 1.304       .   A
O83         C90 1.304       .   A
O84         C91 1.304       .   A
O85         C92 1.304       .   A
O86         C92 1.304       .   A
C87        C401 1.540       .   S
C88        C455 1.540       .   S
C89        C616 1.540       .   S
C90        C454 1.540   1_565   S
C91        C563 1.540       .   S
C92        C482 1.540   1_556   S
Zn93        O97 1.942       .   S
Zn93        O98 1.922       .   S
Zn93       O102 1.922       .   S
Zn93       O109 1.922       .   S
Zn94        O97 1.942       .   S
Zn94        O99 1.922       .   S
Zn94       O101 1.922       .   S
Zn94       O105 1.922       .   S
Zn95        O97 1.942       .   S
Zn95       O100 1.922       .   S
Zn95       O103 1.922       .   S
Zn95       O106 1.922       .   S
Zn96        O97 1.942       .   S
Zn96       O104 1.922       .   S
Zn96       O107 1.922       .   S
Zn96       O108 1.922       .   S
O98        C110 1.304       .   A
O99        C111 1.304       .   A
O100       C112 1.304       .   A
O101       C110 1.304       .   A
O102       C112 1.304       .   A
O103       C111 1.304       .   A
O104       C113 1.304       .   A
O105       C114 1.304       .   A
O106       C113 1.304       .   A
O107       C114 1.304       .   A
O108       C115 1.304       .   A
O109       C115 1.304       .   A
C110       C266 1.540   1_665   S
C111       C698 1.540       .   S
C112       C617 1.540       .   S
C113       C265 1.540   1_565   S
C114       C644 1.540       .   S
C115       C671 1.540       .   S
Zn116      O120 1.942       .   S
Zn116      O121 1.922       .   S
Zn116      O125 1.922       .   S
Zn116      O132 1.922       .   S
Zn117      O120 1.942       .   S
Zn117      O122 1.922       .   S
Zn117      O124 1.922       .   S
Zn117      O128 1.922       .   S
Zn118      O120 1.942       .   S
Zn118      O123 1.922       .   S
Zn118      O126 1.922       .   S
Zn118      O129 1.922       .   S
Zn119      O120 1.942       .   S
Zn119      O127 1.922       .   S
Zn119      O130 1.922       .   S
Zn119      O131 1.922       .   S
O121       C133 1.304       .   A
O122       C134 1.304       .   A
O123       C135 1.304       .   A
O124       C133 1.304       .   A
O125       C135 1.304       .   A
O126       C134 1.304       .   A
O127       C136 1.304       .   A
O128       C137 1.304       .   A
O129       C136 1.304       .   A
O130       C137 1.304       .   A
O131       C138 1.304       .   A
O132       C138 1.304       .   A
C133       C373 1.540   1_465   S
C134       C670 1.540   1_556   S
C135       C752 1.540       .   S
C136       C400 1.540   1_565   S
C137       C725 1.540       .   S
C138       C643 1.540       .   S
Zn139      O143 1.942       .   S
Zn139      O144 1.922       .   S
Zn139      O148 1.922       .   S
Zn139      O155 1.922       .   S
Zn140      O143 1.942       .   S
Zn140      O145 1.922       .   S
Zn140      O147 1.922       .   S
Zn140      O151 1.922       .   S
Zn141      O143 1.942       .   S
Zn141      O146 1.922       .   S
Zn141      O149 1.922       .   S
Zn141      O152 1.922       .   S
Zn142      O143 1.942       .   S
Zn142      O150 1.922       .   S
Zn142      O153 1.922       .   S
Zn142      O154 1.922       .   S
O144       C156 1.304       .   A
O145       C157 1.304       .   A
O146       C158 1.304       .   A
O147       C156 1.304       .   A
O148       C158 1.304       .   A
O149       C157 1.304       .   A
O150       C159 1.304       .   A
O151       C160 1.304       .   A
O152       C159 1.304       .   A
O153       C160 1.304       .   A
O154       C161 1.304       .   A
O155       C161 1.304       .   A
C156       C535 1.540   1_455   S
C157       C697 1.540   1_545   S
C158       C832 1.540       .   S
C159       C536 1.540       .   S
C160       C805 1.540       .   S
C161       C724 1.540       .   S
Zn162      O166 1.942       .   S
Zn162      O167 1.922       .   S
Zn162      O171 1.922       .   S
Zn162      O178 1.922       .   S
Zn163      O166 1.942       .   S
Zn163      O168 1.922       .   S
Zn163      O170 1.922       .   S
Zn163      O174 1.922       .   S
Zn164      O166 1.942       .   S
Zn164      O169 1.922       .   S
Zn164      O172 1.922       .   S
Zn164      O175 1.922       .   S
Zn165      O166 1.942       .   S
Zn165      O173 1.922       .   S
Zn165      O176 1.922       .   S
Zn165      O177 1.922       .   S
O167       C179 1.304       .   A
O168       C180 1.304       .   A
O169       C181 1.304       .   A
O170       C179 1.304       .   A
O171       C181 1.304       .   A
O172       C180 1.304       .   A
O173       C182 1.304       .   A
O174       C183 1.304       .   A
O175       C182 1.304       .   A
O176       C183 1.304       .   A
O177       C184 1.304       .   A
O178       C184 1.304       .   A
C179       C779 1.540       .   S
C180       C589 1.540   1_455   S
C181       C751 1.540   1_545   S
C182       C806 1.540   1_556   S
C183       C778 1.540       .   S
C184       C590 1.540       .   S
C806       C807 0.026       .   A
C806       C811 0.026       .   A
C807       C808 0.026       .   A
C807       H814 0.021       .   A
C808       C809 0.026       .   A
C808       H813 0.021       .   A
C809       C810 0.026       .   A
C809       C812 0.030       .   A
C810       C811 0.026       .   A
C810       F816 0.026       .   A
C811       H815 0.021       .   A
C812       O817 0.029       .   A
C812       C819 0.030       .   A
C812       H827 0.021       .   A
O817       C826 0.029       .   A
C818       C819 0.030       .   A
C818       H822 0.021       .   A
C818       H823 0.021       .   A
C818       C826 0.030       .   A
C819       H821 0.021       .   A
C819       H824 0.021       .   A
C820       C826 0.030       .   A
C820       C828 0.027       .   A
C820       H831 0.021       .   A
H825       C826 0.021       .   A
C828       C829 0.028       .   A
C828       H830 0.021       .   A
C829       C832 0.027       .   A
C779       C780 0.026       .   A
C779       C784 0.026       .   A
C780       C781 0.026       .   A
C780       H787 0.021       .   A
C781       C782 0.026       .   A
C781       H786 0.021       .   A
C782       C783 0.026       .   A
C782       C785 0.030       .   A
C783       C784 0.026       .   A
C783       F789 0.026       .   A
C784       H788 0.021       .   A
C785       O790 0.029       .   A
C785       C792 0.030       .   A
C785       H800 0.021       .   A
O790       C799 0.029       .   A
C791       C792 0.030       .   A
C791       H795 0.021       .   A
C791       H796 0.021       .   A
C791       C799 0.030       .   A
C792       H794 0.021       .   A
C792       H797 0.021       .   A
C793       C799 0.030       .   A
C793       C801 0.027       .   A
C793       H804 0.021       .   A
H798       C799 0.021       .   A
C801       C802 0.028       .   A
C801       H803 0.021       .   A
C802       C805 0.027       .   A
C752       C753 0.026       .   A
C752       C757 0.026       .   A
C753       C754 0.026       .   A
C753       H760 0.021       .   A
C754       C755 0.026       .   A
C754       H759 0.021       .   A
C755       C756 0.026       .   A
C755       C758 0.030       .   A
C756       C757 0.026       .   A
C756       F762 0.026       .   A
C757       H761 0.021       .   A
C758       O763 0.029       .   A
C758       C765 0.030       .   A
C758       H773 0.021       .   A
O763       C772 0.029       .   A
C764       C765 0.030       .   A
C764       H768 0.021       .   A
C764       H769 0.021       .   A
C764       C772 0.030       .   A
C765       H767 0.021       .   A
C765       H770 0.021       .   A
C766       C772 0.030       .   A
C766       C774 0.027       .   A
C766       H777 0.021       .   A
H771       C772 0.021       .   A
C774       C775 0.028       .   A
C774       H776 0.021       .   A
C775       C778 0.027       .   A
C725       C726 0.026       .   A
C725       C730 0.026       .   A
C726       C727 0.026       .   A
C726       H733 0.021       .   A
C727       C728 0.026       .   A
C727       H732 0.021       .   A
C728       C729 0.026       .   A
C728       C731 0.030       .   A
C729       C730 0.026       .   A
C729       F735 0.026       .   A
C730       H734 0.021       .   A
C731       O736 0.029       .   A
C731       C738 0.030       .   A
C731       H746 0.021       .   A
O736       C745 0.029       .   A
C737       C738 0.030       .   A
C737       H741 0.021       .   A
C737       H742 0.021       .   A
C737       C745 0.030       .   A
C738       H740 0.021       .   A
C738       H743 0.021       .   A
C739       C745 0.030       .   A
C739       C747 0.027       .   A
C739       H750 0.021       .   A
H744       C745 0.021       .   A
C747       C748 0.028       .   A
C747       H749 0.021       .   A
C748       C751 0.027       .   A
C698       C699 0.026       .   A
C698       C703 0.026       .   A
C699       C700 0.026       .   A
C699       H706 0.021       .   A
C700       C701 0.026       .   A
C700       H705 0.021       .   A
C701       C702 0.026       .   A
C701       C704 0.030       .   A
C702       C703 0.026       .   A
C702       F708 0.026       .   A
C703       H707 0.021       .   A
C704       O709 0.029       .   A
C704       C711 0.030       .   A
C704       H719 0.021       .   A
O709       C718 0.029       .   A
C710       C711 0.030       .   A
C710       H714 0.021       .   A
C710       H715 0.021       .   A
C710       C718 0.030       .   A
C711       H713 0.021       .   A
C711       H716 0.021       .   A
C712       C718 0.030       .   A
C712       C720 0.027       .   A
C712       H723 0.021       .   A
H717       C718 0.021       .   A
C720       C721 0.028       .   A
C720       H722 0.021       .   A
C721       C724 0.027       .   A
C671       C672 0.026       .   A
C671       C676 0.026       .   A
C672       C673 0.026       .   A
C672       H679 0.021       .   A
C673       C674 0.026       .   A
C673       H678 0.021       .   A
C674       C675 0.026       .   A
C674       C677 0.030       .   A
C675       C676 0.026       .   A
C675       F681 0.026       .   A
C676       H680 0.021       .   A
C677       O682 0.029       .   A
C677       C684 0.030       .   A
C677       H692 0.021       .   A
O682       C691 0.029       .   A
C683       C684 0.030       .   A
C683       H687 0.021       .   A
C683       H688 0.021       .   A
C683       C691 0.030       .   A
C684       H686 0.021       .   A
C684       H689 0.021       .   A
C685       C691 0.030       .   A
C685       C693 0.027       .   A
C685       H696 0.021       .   A
H690       C691 0.021       .   A
C693       C694 0.028       .   A
C693       H695 0.021       .   A
C694       C697 0.027       .   A
C644       C645 0.026       .   A
C644       C649 0.026       .   A
C645       C646 0.026       .   A
C645       H652 0.021       .   A
C646       C647 0.026       .   A
C646       H651 0.021       .   A
C647       C648 0.026       .   A
C647       C650 0.030       .   A
C648       C649 0.026       .   A
C648       F654 0.026       .   A
C649       H653 0.021       .   A
C650       O655 0.029       .   A
C650       C657 0.030       .   A
C650       H665 0.021       .   A
O655       C664 0.029       .   A
C656       C657 0.030       .   A
C656       H660 0.021       .   A
C656       H661 0.021       .   A
C656       C664 0.030       .   A
C657       H659 0.021       .   A
C657       H662 0.021       .   A
C658       C664 0.030       .   A
C658       C666 0.027       .   A
C658       H669 0.021       .   A
H663       C664 0.021       .   A
C666       C667 0.028       .   A
C666       H668 0.021       .   A
C667       C670 0.027       .   A
C617       C618 0.026       .   A
C617       C622 0.026       .   A
C618       C619 0.026       .   A
C618       H625 0.021       .   A
C619       C620 0.026       .   A
C619       H624 0.021       .   A
C620       C621 0.026       .   A
C620       C623 0.030       .   A
C621       C622 0.026       .   A
C621       F627 0.026       .   A
C622       H626 0.021       .   A
C623       O628 0.029       .   A
C623       C630 0.030       .   A
C623       H638 0.021       .   A
O628       C637 0.029       .   A
C629       C630 0.030       .   A
C629       H633 0.021       .   A
C629       H634 0.021       .   A
C629       C637 0.030       .   A
C630       H632 0.021       .   A
C630       H635 0.021       .   A
C631       C637 0.030       .   A
C631       C639 0.027       .   A
C631       H642 0.021       .   A
H636       C637 0.021       .   A
C639       C640 0.028       .   A
C639       H641 0.021       .   A
C640       C643 0.027       .   A
C590       C591 0.026       .   A
C590       C595 0.026       .   A
C591       C592 0.026       .   A
C591       H598 0.021       .   A
C592       C593 0.026       .   A
C592       H597 0.021       .   A
C593       C594 0.026       .   A
C593       C596 0.030       .   A
C594       C595 0.026       .   A
C594       F600 0.026       .   A
C595       H599 0.021       .   A
C596       O601 0.029       .   A
C596       C603 0.030       .   A
C596       H611 0.021       .   A
O601       C610 0.029       .   A
C602       C603 0.030       .   A
C602       H606 0.021       .   A
C602       H607 0.021       .   A
C602       C610 0.030       .   A
C603       H605 0.021       .   A
C603       H608 0.021       .   A
C604       C610 0.030       .   A
C604       C612 0.027       .   A
C604       H615 0.021       .   A
H609       C610 0.021       .   A
C612       C613 0.028       .   A
C612       H614 0.021       .   A
C613       C616 0.027       .   A
C563       C564 0.026       .   A
C563       C568 0.026       .   A
C564       C565 0.026       .   A
C564       H571 0.021       .   A
C565       C566 0.026       .   A
C565       H570 0.021       .   A
C566       C567 0.026       .   A
C566       C569 0.030       .   A
C567       C568 0.026       .   A
C567       F573 0.026       .   A
C568       H572 0.021       .   A
C569       O574 0.029       .   A
C569       C576 0.030       .   A
C569       H584 0.021       .   A
O574       C583 0.029       .   A
C575       C576 0.030       .   A
C575       H579 0.021       .   A
C575       H580 0.021       .   A
C575       C583 0.030       .   A
C576       H578 0.021       .   A
C576       H581 0.021       .   A
C577       C583 0.030       .   A
C577       C585 0.027       .   A
C577       H588 0.021       .   A
H582       C583 0.021       .   A
C585       C586 0.028       .   A
C585       H587 0.021       .   A
C586       C589 0.027       .   A
C536       C537 0.026       .   A
C536       C541 0.026       .   A
C537       C538 0.026       .   A
C537       H544 0.021       .   A
C538       C539 0.026       .   A
C538       H543 0.021       .   A
C539       C540 0.026       .   A
C539       C542 0.030       .   A
C540       C541 0.026       .   A
C540       F546 0.026       .   A
C541       H545 0.021       .   A
C542       O547 0.029       .   A
C542       C549 0.030       .   A
C542       H557 0.021       .   A
O547       C556 0.029       .   A
C548       C549 0.030       .   A
C548       H552 0.021       .   A
C548       H553 0.021       .   A
C548       C556 0.030       .   A
C549       H551 0.021       .   A
C549       H554 0.021       .   A
C550       C556 0.030       .   A
C550       C558 0.027       .   A
C550       H561 0.021       .   A
H555       C556 0.021       .   A
C558       C559 0.028       .   A
C558       H560 0.021       .   A
C559       C562 0.027       .   A
C509       C510 0.026       .   A
C509       C514 0.026       .   A
C510       C511 0.026       .   A
C510       H517 0.021       .   A
C511       C512 0.026       .   A
C511       H516 0.021       .   A
C512       C513 0.026       .   A
C512       C515 0.030       .   A
C513       C514 0.026       .   A
C513       F519 0.026       .   A
C514       H518 0.021       .   A
C515       O520 0.029       .   A
C515       C522 0.030       .   A
C515       H530 0.021       .   A
O520       C529 0.029       .   A
C521       C522 0.030       .   A
C521       H525 0.021       .   A
C521       H526 0.021       .   A
C521       C529 0.030       .   A
C522       H524 0.021       .   A
C522       H527 0.021       .   A
C523       C529 0.030       .   A
C523       C531 0.027       .   A
C523       H534 0.021       .   A
H528       C529 0.021       .   A
C531       C532 0.028       .   A
C531       H533 0.021       .   A
C532       C535 0.027       .   A
C482       C483 0.026       .   A
C482       C487 0.026       .   A
C483       C484 0.026       .   A
C483       H490 0.021       .   A
C484       C485 0.026       .   A
C484       H489 0.021       .   A
C485       C486 0.026       .   A
C485       C488 0.030       .   A
C486       C487 0.026       .   A
C486       F492 0.026       .   A
C487       H491 0.021       .   A
C488       O493 0.029       .   A
C488       C495 0.030       .   A
C488       H503 0.021       .   A
O493       C502 0.029       .   A
C494       C495 0.030       .   A
C494       H498 0.021       .   A
C494       H499 0.021       .   A
C494       C502 0.030       .   A
C495       H497 0.021       .   A
C495       H500 0.021       .   A
C496       C502 0.030       .   A
C496       C504 0.027       .   A
C496       H507 0.021       .   A
H501       C502 0.021       .   A
C504       C505 0.028       .   A
C504       H506 0.021       .   A
C505       C508 0.027       .   A
C455       C456 0.026       .   A
C455       C460 0.026       .   A
C456       C457 0.026       .   A
C456       H463 0.021       .   A
C457       C458 0.026       .   A
C457       H462 0.021       .   A
C458       C459 0.026       .   A
C458       C461 0.030       .   A
C459       C460 0.026       .   A
C459       F465 0.026       .   A
C460       H464 0.021       .   A
C461       O466 0.029       .   A
C461       C468 0.030       .   A
C461       H476 0.021       .   A
O466       C475 0.029       .   A
C467       C468 0.030       .   A
C467       H471 0.021       .   A
C467       H472 0.021       .   A
C467       C475 0.030       .   A
C468       H470 0.021       .   A
C468       H473 0.021       .   A
C469       C475 0.030       .   A
C469       C477 0.027       .   A
C469       H480 0.021       .   A
H474       C475 0.021       .   A
C477       C478 0.028       .   A
C477       H479 0.021       .   A
C478       C481 0.027       .   A
C428       C429 0.026       .   A
C428       C433 0.026       .   A
C429       C430 0.026       .   A
C429       H436 0.021       .   A
C430       C431 0.026       .   A
C430       H435 0.021       .   A
C431       C432 0.026       .   A
C431       C434 0.030       .   A
C432       C433 0.026       .   A
C432       F438 0.026       .   A
C433       H437 0.021       .   A
C434       O439 0.029       .   A
C434       C441 0.030       .   A
C434       H449 0.021       .   A
O439       C448 0.029       .   A
C440       C441 0.030       .   A
C440       H444 0.021       .   A
C440       H445 0.021       .   A
C440       C448 0.030       .   A
C441       H443 0.021       .   A
C441       H446 0.021       .   A
C442       C448 0.030       .   A
C442       C450 0.027       .   A
C442       H453 0.021       .   A
H447       C448 0.021       .   A
C450       C451 0.028       .   A
C450       H452 0.021       .   A
C451       C454 0.027       .   A
C401       C402 0.026       .   A
C401       C406 0.026       .   A
C402       C403 0.026       .   A
C402       H409 0.021       .   A
C403       C404 0.026       .   A
C403       H408 0.021       .   A
C404       C405 0.026       .   A
C404       C407 0.030       .   A
C405       C406 0.026       .   A
C405       F411 0.026       .   A
C406       H410 0.021       .   A
C407       O412 0.029       .   A
C407       C414 0.030       .   A
C407       H422 0.021       .   A
O412       C421 0.029       .   A
C413       C414 0.030       .   A
C413       H417 0.021       .   A
C413       H418 0.021       .   A
C413       C421 0.030       .   A
C414       H416 0.021       .   A
C414       H419 0.021       .   A
C415       C421 0.030       .   A
C415       C423 0.027       .   A
C415       H426 0.021       .   A
H420       C421 0.021       .   A
C423       C424 0.028       .   A
C423       H425 0.021       .   A
C424       C427 0.027       .   A
C374       C375 0.026       .   A
C374       C379 0.026       .   A
C375       C376 0.026       .   A
C375       H382 0.021       .   A
C376       C377 0.026       .   A
C376       H381 0.021       .   A
C377       C378 0.026       .   A
C377       C380 0.030       .   A
C378       C379 0.026       .   A
C378       F384 0.026       .   A
C379       H383 0.021       .   A
C380       O385 0.029       .   A
C380       C387 0.030       .   A
C380       H395 0.021       .   A
O385       C394 0.029       .   A
C386       C387 0.030       .   A
C386       H390 0.021       .   A
C386       H391 0.021       .   A
C386       C394 0.030       .   A
C387       H389 0.021       .   A
C387       H392 0.021       .   A
C388       C394 0.030       .   A
C388       C396 0.027       .   A
C388       H399 0.021       .   A
H393       C394 0.021       .   A
C396       C397 0.028       .   A
C396       H398 0.021       .   A
C397       C400 0.027       .   A
C347       C348 0.026       .   A
C347       C352 0.026       .   A
C348       C349 0.026       .   A
C348       H355 0.021       .   A
C349       C350 0.026       .   A
C349       H354 0.021       .   A
C350       C351 0.026       .   A
C350       C353 0.030       .   A
C351       C352 0.026       .   A
C351       F357 0.026       .   A
C352       H356 0.021       .   A
C353       O358 0.029       .   A
C353       C360 0.030       .   A
C353       H368 0.021       .   A
O358       C367 0.029       .   A
C359       C360 0.030       .   A
C359       H363 0.021       .   A
C359       H364 0.021       .   A
C359       C367 0.030       .   A
C360       H362 0.021       .   A
C360       H365 0.021       .   A
C361       C367 0.030       .   A
C361       C369 0.027       .   A
C361       H372 0.021       .   A
H366       C367 0.021       .   A
C369       C370 0.028       .   A
C369       H371 0.021       .   A
C370       C373 0.027       .   A
C320       C321 0.026       .   A
C320       C325 0.026       .   A
C321       C322 0.026       .   A
C321       H328 0.021       .   A
C322       C323 0.026       .   A
C322       H327 0.021       .   A
C323       C324 0.026       .   A
C323       C326 0.030       .   A
C324       C325 0.026       .   A
C324       F330 0.026       .   A
C325       H329 0.021       .   A
C326       O331 0.029       .   A
C326       C333 0.030       .   A
C326       H341 0.021       .   A
O331       C340 0.029       .   A
C332       C333 0.030       .   A
C332       H336 0.021       .   A
C332       H337 0.021       .   A
C332       C340 0.030       .   A
C333       H335 0.021       .   A
C333       H338 0.021       .   A
C334       C340 0.030       .   A
C334       C342 0.027       .   A
C334       H345 0.021       .   A
H339       C340 0.021       .   A
C342       C343 0.028       .   A
C342       H344 0.021       .   A
C343       C346 0.027       .   A
C293       C294 0.026       .   A
C293       C298 0.026       .   A
C294       C295 0.026       .   A
C294       H301 0.021       .   A
C295       C296 0.026       .   A
C295       H300 0.021       .   A
C296       C297 0.026       .   A
C296       C299 0.030       .   A
C297       C298 0.026       .   A
C297       F303 0.026       .   A
C298       H302 0.021       .   A
C299       O304 0.029       .   A
C299       C306 0.030       .   A
C299       H314 0.021       .   A
O304       C313 0.029       .   A
C305       C306 0.030       .   A
C305       H309 0.021       .   A
C305       H310 0.021       .   A
C305       C313 0.030       .   A
C306       H308 0.021       .   A
C306       H311 0.021       .   A
C307       C313 0.030       .   A
C307       C315 0.027       .   A
C307       H318 0.021       .   A
H312       C313 0.021       .   A
C315       C316 0.028       .   A
C315       H317 0.021       .   A
C316       C319 0.027       .   A
C266       C267 0.026       .   A
C266       C271 0.026       .   A
C267       C268 0.026       .   A
C267       H274 0.021       .   A
C268       C269 0.026       .   A
C268       H273 0.021       .   A
C269       C270 0.026       .   A
C269       C272 0.030       .   A
C270       C271 0.026       .   A
C270       F276 0.026       .   A
C271       H275 0.021       .   A
C272       O277 0.029       .   A
C272       C279 0.030       .   A
C272       H287 0.021       .   A
O277       C286 0.029       .   A
C278       C279 0.030       .   A
C278       H282 0.021       .   A
C278       H283 0.021       .   A
C278       C286 0.030       .   A
C279       H281 0.021       .   A
C279       H284 0.021       .   A
C280       C286 0.030       .   A
C280       C288 0.027       .   A
C280       H291 0.021       .   A
H285       C286 0.021       .   A
C288       C289 0.028       .   A
C288       H290 0.021       .   A
C289       C292 0.027       .   A
C239       C240 0.026       .   A
C239       C244 0.026       .   A
C240       C241 0.026       .   A
C240       H247 0.021       .   A
C241       C242 0.026       .   A
C241       H246 0.021       .   A
C242       C243 0.026       .   A
C242       C245 0.030       .   A
C243       C244 0.026       .   A
C243       F249 0.026       .   A
C244       H248 0.021       .   A
C245       O250 0.029       .   A
C245       C252 0.030       .   A
C245       H260 0.021       .   A
O250       C259 0.029       .   A
C251       C252 0.030       .   A
C251       H255 0.021       .   A
C251       H256 0.021       .   A
C251       C259 0.030       .   A
C252       H254 0.021       .   A
C252       H257 0.021       .   A
C253       C259 0.030       .   A
C253       C261 0.027       .   A
C253       H264 0.021       .   A
H258       C259 0.021       .   A
C261       C262 0.028       .   A
C261       H263 0.021       .   A
C262       C265 0.027       .   A
C212       C213 0.026       .   A
C212       C217 0.026       .   A
C213       C214 0.026       .   A
C213       H220 0.021       .   A
C214       C215 0.026       .   A
C214       H219 0.021       .   A
C215       C216 0.026       .   A
C215       C218 0.030       .   A
C216       C217 0.026       .   A
C216       F222 0.026       .   A
C217       H221 0.021       .   A
C218       O223 0.029       .   A
C218       C225 0.030       .   A
C218       H233 0.021       .   A
O223       C232 0.029       .   A
C224       C225 0.030       .   A
C224       H228 0.021       .   A
C224       H229 0.021       .   A
C224       C232 0.030       .   A
C225       H227 0.021       .   A
C225       H230 0.021       .   A
C226       C232 0.030       .   A
C226       C234 0.027       .   A
C226       H237 0.021       .   A
H231       C232 0.021       .   A
C234       C235 0.028       .   A
C234       H236 0.021       .   A
C235       C238 0.027       .   A
C185       C186 0.026       .   A
C185       C190 0.026       .   A
C186       C187 0.026       .   A
C186       H193 0.021       .   A
C187       C188 0.026       .   A
C187       H192 0.021       .   A
C188       C189 0.026       .   A
C188       C191 0.030       .   A
C189       C190 0.026       .   A
C189       F195 0.026       .   A
C190       H194 0.021       .   A
C191       O196 0.029       .   A
C191       C198 0.030       .   A
C191       H206 0.021       .   A
O196       C205 0.029       .   A
C197       C198 0.030       .   A
C197       H201 0.021       .   A
C197       H202 0.021       .   A
C197       C205 0.030       .   A
C198       H200 0.021       .   A
C198       H203 0.021       .   A
C199       C205 0.030       .   A
C199       C207 0.027       .   A
C199       H210 0.021       .   A
H204       C205 0.021       .   A
C207       C208 0.028       .   A
C207       H209 0.021       .   A
C208       C211 0.027       .   A
