data_pcu_v1-6c_Zn_1_Ch_1-23_fer_tobacco
_audit_creation_date              2021-02-03
_audit_creation_method            'tobacco_3.0'
_symmetry_space_group_name_H-M    'P1'
_symmetry_Int_Tables_number       1
_symmetry_cell_setting            triclinic
loop_
_symmetry_equiv_pos_as_xyz
  x,y,z
_cell_length_a                    42.3301665489587
_cell_length_b                    42.3301665489587
_cell_length_c                    42.3301665489587
_cell_angle_alpha                 90.0
_cell_angle_beta                  90.0
_cell_angle_gamma                 90.0
loop_
_atom_site_label
_atom_site_type_symbol
_atom_site_fract_x
_atom_site_fract_y
_atom_site_fract_z
_atom_site_charge
Zn1       Zn   -0.0264870208   -0.0264870208    0.0264870208          1.4972
Zn2       Zn   -0.0264870208    0.0264870208   -0.0264870208          1.4936
Zn3       Zn    0.0264870208    0.0264870208    0.0264870208          1.4911
Zn4       Zn    0.0264870208   -0.0264870208   -0.0264870208          1.4948
O5         O    0.0000000000    0.0000000000    0.0000000000         -1.8365
O6         O   -0.0707911224   -0.0194660231    0.0194660231         -0.7428
O7         O   -0.0194660231    0.0707911224   -0.0194660231          -0.741
O8         O    0.0194660231    0.0194660231    0.0707911224         -0.7362
O9         O   -0.0707911224    0.0194660231   -0.0194660231         -0.7429
O10        O   -0.0194660231   -0.0194660231    0.0707911224         -0.7389
O11        O    0.0194660231    0.0707911224    0.0194660231         -0.7448
O12        O    0.0707911224   -0.0194660231   -0.0194660231         -0.7387
O13        O   -0.0194660231    0.0194660231   -0.0707911224         -0.7462
O14        O    0.0707911224    0.0194660231    0.0194660231         -0.7401
O15        O    0.0194660231   -0.0194660231   -0.0707911224         -0.7448
O16        O    0.0194660231   -0.0707911224   -0.0194660231         -0.7439
O17        O   -0.0194660231   -0.0707911224    0.0194660231         -0.7418
C18        C   -0.0846394024    0.0000000000    0.0000000000          0.7761
C19        C    0.0000000000    0.0846394024    0.0000000000           0.781
C20        C   -0.0000000000   -0.0000000000    0.0846394024          0.7706
C21        C    0.0846394024   -0.0000000000   -0.0000000000          0.7744
C22        C    0.0000000000    0.0000000000   -0.0846394024          0.7857
C23        C   -0.0000000000   -0.0846394024   -0.0000000000          0.7762
Zn24      Zn    0.9735129792    0.0264870208    0.4735129792          1.4972
Zn25      Zn    1.0264870208   -0.0264870208    0.4735129792          1.4936
Zn26      Zn    1.0264870208    0.0264870208    0.5264870208          1.4911
Zn27      Zn    0.9735129792   -0.0264870208    0.5264870208          1.4948
O28        O    1.0000000000    0.0000000000    0.5000000000         -1.8365
O29        O    0.9805339769    0.0194660231    0.4292088776         -0.7428
O30        O    1.0707911224   -0.0194660231    0.4805339769          -0.741
O31        O    1.0194660231    0.0707911224    0.5194660231         -0.7362
O32        O    1.0194660231   -0.0194660231    0.4292088776         -0.7429
O33        O    0.9805339769    0.0707911224    0.4805339769         -0.7389
O34        O    1.0707911224    0.0194660231    0.5194660231         -0.7448
O35        O    0.9805339769   -0.0194660231    0.5707911224         -0.7387
O36        O    1.0194660231   -0.0707911224    0.4805339769         -0.7462
O37        O    1.0194660231    0.0194660231    0.5707911224         -0.7401
O38        O    0.9805339769   -0.0707911224    0.5194660231         -0.7448
O39        O    0.9292088776   -0.0194660231    0.5194660231         -0.7439
O40        O    0.9292088776    0.0194660231    0.4805339769         -0.7418
C41        C    1.0000000000    0.0000000000    0.4153605976          0.7761
C42        C    1.0846394024    0.0000000000    0.5000000000           0.781
C43        C    1.0000000000    0.0846394024    0.5000000000          0.7706
C44        C    1.0000000000    0.0000000000    0.5846394024          0.7744
C45        C    1.0000000000   -0.0846394024    0.5000000000          0.7857
C46        C    0.9153605976    0.0000000000    0.5000000000          0.7762
Zn47      Zn    1.0264870208    0.4735129792   -0.0264870208          1.4972
Zn48      Zn    0.9735129792    0.4735129792    0.0264870208          1.4936
Zn49      Zn    1.0264870208    0.5264870208    0.0264870208          1.4911
Zn50      Zn    0.9735129792    0.5264870208   -0.0264870208          1.4948
O51        O    1.0000000000    0.5000000000    0.0000000000         -1.8365
O52        O    1.0194660231    0.4292088776   -0.0194660231         -0.7428
O53        O    0.9805339769    0.4805339769    0.0707911224          -0.741
O54        O    1.0707911224    0.5194660231    0.0194660231         -0.7362
O55        O    0.9805339769    0.4292088776    0.0194660231         -0.7429
O56        O    1.0707911224    0.4805339769   -0.0194660231         -0.7389
O57        O    1.0194660231    0.5194660231    0.0707911224         -0.7448
O58        O    0.9805339769    0.5707911224   -0.0194660231         -0.7387
O59        O    0.9292088776    0.4805339769    0.0194660231         -0.7462
O60        O    1.0194660231    0.5707911224    0.0194660231         -0.7401
O61        O    0.9292088776    0.5194660231   -0.0194660231         -0.7448
O62        O    0.9805339769    0.5194660231   -0.0707911224         -0.7439
O63        O    1.0194660231    0.4805339769   -0.0707911224         -0.7418
C64        C    1.0000000000    0.4153605976    0.0000000000          0.7761
C65        C    1.0000000000    0.5000000000    0.0846394024           0.781
C66        C    1.0846394024    0.5000000000    0.0000000000          0.7706
C67        C    1.0000000000    0.5846394024    0.0000000000          0.7744
C68        C    0.9153605976    0.5000000000    0.0000000000          0.7857
C69        C    1.0000000000    0.5000000000   -0.0846394024          0.7762
Zn70      Zn    0.9735129792    0.4735129792    0.5264870208          1.4972
Zn71      Zn    1.0264870208    0.4735129792    0.4735129792          1.4936
Zn72      Zn    0.9735129792    0.5264870208    0.4735129792          1.4911
Zn73      Zn    1.0264870208    0.5264870208    0.5264870208          1.4948
O74        O    1.0000000000    0.5000000000    0.5000000000         -1.8365
O75        O    0.9805339769    0.4292088776    0.5194660231         -0.7428
O76        O    1.0194660231    0.4805339769    0.4292088776          -0.741
O77        O    0.9292088776    0.5194660231    0.4805339769         -0.7362
O78        O    1.0194660231    0.4292088776    0.4805339769         -0.7429
O79        O    0.9292088776    0.4805339769    0.5194660231         -0.7389
O80        O    0.9805339769    0.5194660231    0.4292088776         -0.7448
O81        O    1.0194660231    0.5707911224    0.5194660231         -0.7387
O82        O    1.0707911224    0.4805339769    0.4805339769         -0.7462
O83        O    0.9805339769    0.5707911224    0.4805339769         -0.7401
O84        O    1.0707911224    0.5194660231    0.5194660231         -0.7448
O85        O    1.0194660231    0.5194660231    0.5707911224         -0.7439
O86        O    0.9805339769    0.4805339769    0.5707911224         -0.7418
C87        C    1.0000000000    0.4153605976    0.5000000000          0.7761
C88        C    1.0000000000    0.5000000000    0.4153605976           0.781
C89        C    0.9153605976    0.5000000000    0.5000000000          0.7706
C90        C    1.0000000000    0.5846394024    0.5000000000          0.7744
C91        C    1.0846394024    0.5000000000    0.5000000000          0.7857
C92        C    1.0000000000    0.5000000000    0.5846394024          0.7762
Zn93      Zn    0.4735129792    0.9735129792   -0.0264870208          1.4972
Zn94      Zn    0.4735129792    1.0264870208    0.0264870208          1.4936
Zn95      Zn    0.5264870208    0.9735129792    0.0264870208          1.4911
Zn96      Zn    0.5264870208    1.0264870208   -0.0264870208          1.4948
O97        O    0.5000000000    1.0000000000    0.0000000000         -1.8365
O98        O    0.4292088776    0.9805339769   -0.0194660231         -0.7428
O99        O    0.4805339769    1.0194660231    0.0707911224          -0.741
O100       O    0.5194660231    0.9292088776    0.0194660231         -0.7362
O101       O    0.4292088776    1.0194660231    0.0194660231         -0.7429
O102       O    0.4805339769    0.9292088776   -0.0194660231         -0.7389
O103       O    0.5194660231    0.9805339769    0.0707911224         -0.7448
O104       O    0.5707911224    1.0194660231   -0.0194660231         -0.7387
O105       O    0.4805339769    1.0707911224    0.0194660231         -0.7462
O106       O    0.5707911224    0.9805339769    0.0194660231         -0.7401
O107       O    0.5194660231    1.0707911224   -0.0194660231         -0.7448
O108       O    0.5194660231    1.0194660231   -0.0707911224         -0.7439
O109       O    0.4805339769    0.9805339769   -0.0707911224         -0.7418
C110       C    0.4153605976    1.0000000000    0.0000000000          0.7761
C111       C    0.5000000000    1.0000000000    0.0846394024           0.781
C112       C    0.5000000000    0.9153605976    0.0000000000          0.7706
C113       C    0.5846394024    1.0000000000    0.0000000000          0.7744
C114       C    0.5000000000    1.0846394024    0.0000000000          0.7857
C115       C    0.5000000000    1.0000000000   -0.0846394024          0.7762
Zn116     Zn    0.4735129792    1.0264870208    0.5264870208          1.4972
Zn117     Zn    0.4735129792    0.9735129792    0.4735129792          1.4936
Zn118     Zn    0.5264870208    1.0264870208    0.4735129792          1.4911
Zn119     Zn    0.5264870208    0.9735129792    0.5264870208          1.4948
O120       O    0.5000000000    1.0000000000    0.5000000000         -1.8365
O121       O    0.4292088776    1.0194660231    0.5194660231         -0.7428
O122       O    0.4805339769    0.9805339769    0.4292088776          -0.741
O123       O    0.5194660231    1.0707911224    0.4805339769         -0.7362
O124       O    0.4292088776    0.9805339769    0.4805339769         -0.7429
O125       O    0.4805339769    1.0707911224    0.5194660231         -0.7389
O126       O    0.5194660231    1.0194660231    0.4292088776         -0.7448
O127       O    0.5707911224    0.9805339769    0.5194660231         -0.7387
O128       O    0.4805339769    0.9292088776    0.4805339769         -0.7462
O129       O    0.5707911224    1.0194660231    0.4805339769         -0.7401
O130       O    0.5194660231    0.9292088776    0.5194660231         -0.7392
O131       O    0.5194660231    0.9805339769    0.5707911224         -0.7439
O132       O    0.4805339769    1.0194660231    0.5707911224         -0.7418
C133       C    0.4153605976    1.0000000000    0.5000000000          0.7761
C134       C    0.5000000000    1.0000000000    0.4153605976           0.781
C135       C    0.5000000000    1.0846394024    0.5000000000          0.7706
C136       C    0.5846394024    1.0000000000    0.5000000000          0.7744
C137       C    0.5000000000    0.9153605976    0.5000000000          0.7857
C138       C    0.5000000000    1.0000000000    0.5846394024          0.7762
Zn139     Zn    0.4735129792    0.5264870208   -0.0264870208          1.4972
Zn140     Zn    0.4735129792    0.4735129792    0.0264870208          1.4936
Zn141     Zn    0.5264870208    0.4735129792   -0.0264870208          1.4911
Zn142     Zn    0.5264870208    0.5264870208    0.0264870208          1.4948
O143       O    0.5000000000    0.5000000000    0.0000000000         -1.8365
O144       O    0.4292088776    0.5194660231   -0.0194660231         -0.7428
O145       O    0.4805339769    0.4292088776    0.0194660231          -0.741
O146       O    0.5194660231    0.4805339769   -0.0707911224         -0.7362
O147       O    0.4292088776    0.4805339769    0.0194660231         -0.7429
O148       O    0.4805339769    0.5194660231   -0.0707911224         -0.7389
O149       O    0.5194660231    0.4292088776   -0.0194660231         -0.7448
O150       O    0.5707911224    0.5194660231    0.0194660231         -0.7387
O151       O    0.4805339769    0.4805339769    0.0707911224         -0.7462
O152       O    0.5707911224    0.4805339769   -0.0194660231         -0.7401
O153       O    0.5194660231    0.5194660231    0.0707911224         -0.7448
O154       O    0.5194660231    0.5707911224    0.0194660231         -0.7439
O155       O    0.4805339769    0.5707911224   -0.0194660231         -0.7418
C156       C    0.4153605976    0.5000000000    0.0000000000          0.7761
C157       C    0.5000000000    0.4153605976    0.0000000000           0.781
C158       C    0.5000000000    0.5000000000   -0.0846394024          0.7706
C159       C    0.5846394024    0.5000000000    0.0000000000          0.7744
C160       C    0.5000000000    0.5000000000    0.0846394024          0.7857
C161       C    0.5000000000    0.5846394024    0.0000000000          0.7762
Zn162     Zn    0.4735129792    0.5264870208    0.4735129792          1.4972
Zn163     Zn    0.4735129792    0.4735129792    0.5264870208          1.4936
Zn164     Zn    0.5264870208    0.4735129792    0.4735129792          1.4911
Zn165     Zn    0.5264870208    0.5264870208    0.5264870208          1.4948
O166       O    0.5000000000    0.5000000000    0.5000000000         -1.8365
O167       O    0.4292088776    0.5194660231    0.4805339769         -0.7428
O168       O    0.4805339769    0.4292088776    0.5194660231          -0.741
O169       O    0.5194660231    0.4805339769    0.4292088776         -0.7362
O170       O    0.4292088776    0.4805339769    0.5194660231         -0.7429
O171       O    0.4805339769    0.5194660231    0.4292088776         -0.7389
O172       O    0.5194660231    0.4292088776    0.4805339769         -0.7448
O173       O    0.5707911224    0.5194660231    0.5194660231         -0.7387
O174       O    0.4805339769    0.4805339769    0.5707911224         -0.7462
O175       O    0.5707911224    0.4805339769    0.4805339769         -0.7401
O176       O    0.5194660231    0.5194660231    0.5707911224         -0.7448
O177       O    0.5194660231    0.5707911224    0.5194660231         -0.7439
O178       O    0.4805339769    0.5707911224    0.4805339769         -0.7418
C179       C    0.4153605976    0.5000000000    0.5000000000          0.7761
C180       C    0.5000000000    0.4153605976    0.5000000000           0.781
C181       C    0.5000000000    0.5000000000    0.4153605976          0.7706
C182       C    0.5846394024    0.5000000000    0.5000000000          0.7744
C183       C    0.5000000000    0.5000000000    0.5846394024          0.7857
C184       C    0.5000000000    0.5846394024    0.5000000000          0.7762
C599       C    0.5000000000    0.5000000000   -0.1210200766          0.0018
C600       C    0.5000000000    0.4750047012   -0.1413772084          0.0018
C601       C    0.5000000000    0.4784490095   -0.1729476968          0.0018
C602       C    0.5000000000    0.5076424546   -0.1873738218          0.0018
C603       C    0.5000000000    0.5327096532   -0.1662940474          0.0018
C604       C    0.5000000000    0.5284404701   -0.1347833156          0.0018
C605       C    0.5000000000    0.5130960382   -0.2199205637          0.0018
H606       H    0.5000000000    0.4574472161   -0.1877771697          0.0018
Br607     Br    0.5000000000    0.4315183748   -0.1300611297          0.0018
H608       H    0.5000000000    0.5493619081   -0.1198931645          0.0018
H609       H    0.5000000000    0.5567290189   -0.1754180346          0.0018
C610       C    0.5000000000    0.4936699977   -0.2456946191          0.0018
C611       C    0.5000000000    0.5034213474   -0.2790361716          0.0018
H612       H    0.5000000000    0.4681395949   -0.2423198624          0.0018
H613       H    0.5000000000    0.5380451205   -0.2261362606          0.0018
C614       C    0.5000000000    0.5027354369   -0.3123628315          0.0018
C615       C    0.5000000000    0.5016415517   -0.3456705126          0.0018
C616       C    0.5000000000    0.5000000000   -0.3789799234          0.0018
C581       C    0.5000000000    0.5000000000    0.1210200766          0.0018
C582       C    0.4750047012    0.5000000000    0.1413772084          0.0018
C583       C    0.4784490095    0.5000000000    0.1729476968          0.0018
C584       C    0.5076424546    0.5000000000    0.1873738218          0.0018
C585       C    0.5327096532    0.5000000000    0.1662940474          0.0018
C586       C    0.5284404701    0.5000000000    0.1347833156          0.0018
C587       C    0.5130960382    0.5000000000    0.2199205637          0.0018
H588       H    0.4574472161    0.5000000000    0.1877771697          0.0018
Br589     Br    0.4315183748    0.5000000000    0.1300611297          0.0018
H590       H    0.5493619081    0.5000000000    0.1198931645          0.0018
H591       H    0.5567290189    0.5000000000    0.1754180346          0.0018
C592       C    0.4936699977    0.5000000000    0.2456946191          0.0018
C593       C    0.5034213474    0.5000000000    0.2790361716          0.0018
H594       H    0.4681395949    0.5000000000    0.2423198624          0.0018
H595       H    0.5380451205    0.5000000000    0.2261362606          0.0018
C596       C    0.5027354369    0.5000000000    0.3123628315          0.0018
C597       C    0.5016415517    0.5000000000    0.3456705126          0.0018
C598       C    0.5000000000    0.5000000000    0.3789799234          0.0018
C563       C    0.5000000000    0.8789799234    0.5000000000          0.0018
C564       C    0.5000000000    0.8586227916    0.4750047012          0.0018
C565       C    0.5000000000    0.8270523032    0.4784490095          0.0018
C566       C    0.5000000000    0.8126261782    0.5076424546          0.0018
C567       C    0.5000000000    0.8337059526    0.5327096532          0.0018
C568       C    0.5000000000    0.8652166844    0.5284404701          0.0018
C569       C    0.5000000000    0.7800794363    0.5130960382          0.0018
H570       H    0.5000000000    0.8122228303    0.4574472161          0.0018
Br571     Br    0.5000000000    0.8699388703    0.4315183748          0.0018
H572       H    0.5000000000    0.8801068355    0.5493619081          0.0018
H573       H    0.5000000000    0.8245819654    0.5567290189          0.0018
C574       C    0.5000000000    0.7543053809    0.4936699977          0.0018
C575       C    0.5000000000    0.7209638284    0.5034213474          0.0018
H576       H    0.5000000000    0.7576801376    0.4681395949          0.0018
H577       H    0.5000000000    0.7738637394    0.5380451205          0.0018
C578       C    0.5000000000    0.6876371685    0.5027354369          0.0018
C579       C    0.5000000000    0.6543294874    0.5016415517          0.0018
C580       C    0.5000000000    0.6210200766    0.5000000000          0.0018
C545       C    0.5000000000    1.1210200766    0.5000000000          0.0018
C546       C    0.5249952988    1.1413772084    0.5000000000          0.0018
C547       C    0.5215509905    1.1729476968    0.5000000000          0.0018
C548       C    0.4923575454    1.1873738218    0.5000000000          0.0018
C549       C    0.4672903468    1.1662940474    0.5000000000          0.0018
C550       C    0.4715595299    1.1347833156    0.5000000000          0.0018
C551       C    0.4869039618    1.2199205637    0.5000000000          0.0018
H552       H    0.5425527839    1.1877771697    0.5000000000          0.0018
Br553     Br    0.5684816252    1.1300611297    0.5000000000          0.0018
H554       H    0.4506380919    1.1198931645    0.5000000000          0.0018
H555       H    0.4432709811    1.1754180346    0.5000000000          0.0018
C556       C    0.5063300023    1.2456946191    0.5000000000          0.0018
C557       C    0.4965786526    1.2790361716    0.5000000000          0.0018
H558       H    0.5318604051    1.2423198624    0.5000000000          0.0018
H559       H    0.4619548795    1.2261362606    0.5000000000          0.0018
C560       C    0.4972645631    1.3123628315    0.5000000000          0.0018
C561       C    0.4983584483    1.3456705126    0.5000000000          0.0018
C562       C    0.5000000000    1.3789799234    0.5000000000          0.0018
C527       C    0.5000000000    0.8789799234    0.0000000000          0.0018
C528       C    0.4878497838    0.8586227916   -0.0218434706          0.0018
C529       C    0.4895240623    0.8270523032   -0.0188334787          0.0018
C530       C    0.5037149976    0.8126261782    0.0066787652          0.0018
C531       C    0.5159001643    0.8337059526    0.0285850693          0.0018
C532       C    0.5138249142    0.8652166844    0.0248542167          0.0018
C533       C    0.5063659849    0.7800794363    0.0114446692          0.0018
H534       H    0.4793150893    0.8122228303   -0.0371870124          0.0018
Br535     Br    0.4667110781    0.8699388703   -0.0598463087          0.0018
H536       H    0.5239948263    0.8801068355    0.0431375275          0.0018
H537       H    0.5275759793    0.8245819654    0.0495756689          0.0018
C538       C    0.4969229855    0.7543053809   -0.0055318090          0.0018
C539       C    0.5016631172    0.7209638284    0.0029899263          0.0018
H540       H    0.4845126553    0.7576801376   -0.0278429087          0.0018
H541       H    0.5184937353    0.7738637394    0.0332477511          0.0018
C542       C    0.5013296960    0.6876371685    0.0023905069          0.0018
C543       C    0.5007979584    0.6543294874    0.0014345572          0.0018
C544       C    0.5000000000    0.6210200766    0.0000000000          0.0018
C509       C    0.5000000000    1.1210200766    0.0000000000          0.0018
C510       C    0.5051764864    1.1413772084   -0.0244534036          0.0018
C511       C    0.5044631757    1.1729476968   -0.0210837676          0.0018
C512       C    0.4984172599    1.1873738218    0.0074767671          0.0018
C513       C    0.4932258831    1.1662940474    0.0320005117          0.0018
C514       C    0.4941100241    1.1347833156    0.0278238841          0.0018
C515       C    0.4972878314    1.2199205637    0.0128121176          0.0018
H516       H    0.5088126135    1.1877771697   -0.0416302446          0.0018
Br517     Br    0.5141824350    1.1300611297   -0.0669969516          0.0018
H518       H    0.4897772278    1.1198931645    0.0482917477          0.0018
H519       H    0.4882515109    1.1754180346    0.0554991404          0.0018
C520       C    0.5013109334    1.2456946191   -0.0061927686          0.0018
C521       C    0.4992914444    1.2790361716    0.0033471730          0.0018
H522       H    0.5065982389    1.2423198624   -0.0311696753          0.0018
H523       H    0.4921209164    1.2261362606    0.0372203068          0.0018
C524       C    0.4994334954    1.3123628315    0.0026761329          0.0018
C525       C    0.4996600373    1.3456705126    0.0016059630          0.0018
C526       C    0.5000000000    1.3789799234    0.0000000000          0.0018
C491       C    0.5000000000    1.0000000000   -0.1210200766          0.0018
C492       C    0.5249952988    1.0000000000   -0.1413772084          0.0018
C493       C    0.5215509905    1.0000000000   -0.1729476968          0.0018
C494       C    0.4923575454    1.0000000000   -0.1873738218          0.0018
C495       C    0.4672903468    1.0000000000   -0.1662940474          0.0018
C496       C    0.4715595299    1.0000000000   -0.1347833156          0.0018
C497       C    0.4869039618    1.0000000000   -0.2199205637          0.0018
H498       H    0.5425527839    1.0000000000   -0.1877771697          0.0018
Br499     Br    0.5684816252    1.0000000000   -0.1300611297          0.0018
H500       H    0.4506380919    1.0000000000   -0.1198931645          0.0018
H501       H    0.4432709811    1.0000000000   -0.1754180346          0.0018
C502       C    0.5063300023    1.0000000000   -0.2456946191          0.0018
C503       C    0.4965786526    1.0000000000   -0.2790361716          0.0018
H504       H    0.5318604051    1.0000000000   -0.2423198624          0.0018
H505       H    0.4619548795    1.0000000000   -0.2261362606          0.0018
C506       C    0.4972645631    1.0000000000   -0.3123628315          0.0018
C507       C    0.4983584483    1.0000000000   -0.3456705126          0.0018
C508       C    0.5000000000    1.0000000000   -0.3789799234          0.0018
C473       C    0.5000000000    1.0000000000    0.1210200766          0.0018
C474       C    0.5249952988    1.0000000000    0.1413772084          0.0018
C475       C    0.5215509905    1.0000000000    0.1729476968          0.0018
C476       C    0.4923575454    1.0000000000    0.1873738218          0.0018
C477       C    0.4672903468    1.0000000000    0.1662940474          0.0018
C478       C    0.4715595299    1.0000000000    0.1347833156          0.0018
C479       C    0.4869039618    1.0000000000    0.2199205637          0.0018
H480       H    0.5425527839    1.0000000000    0.1877771697          0.0018
Br481     Br    0.5684816252    1.0000000000    0.1300611297          0.0018
H482       H    0.4506380919    1.0000000000    0.1198931645          0.0018
H483       H    0.4432709811    1.0000000000    0.1754180346          0.0018
C484       C    0.5063300023    1.0000000000    0.2456946191          0.0018
C485       C    0.4965786526    1.0000000000    0.2790361716          0.0018
H486       H    0.5318604051    1.0000000000    0.2423198624          0.0018
H487       H    0.4619548795    1.0000000000    0.2261362606          0.0018
C488       C    0.4972645631    1.0000000000    0.3123628315          0.0018
C489       C    0.4983584483    1.0000000000    0.3456705126          0.0018
C490       C    0.5000000000    1.0000000000    0.3789799234          0.0018
C455       C    0.8789799234    0.5000000000    0.5000000000          0.0018
C456       C    0.8586227916    0.4861351029    0.5207973457          0.0018
C457       C    0.8270523032    0.4880456613    0.5179315080          0.0018
C458       C    0.8126261782    0.5042392711    0.4936410934          0.0018
C459       C    0.8337059526    0.5181440510    0.4727839234          0.0018
C460       C    0.8652166844    0.5157759344    0.4763360985          0.0018
C461       C    0.7800794363    0.5072643750    0.4891034376          0.0018
H462       H    0.8122228303    0.4763959624    0.5354060564          0.0018
Br463     Br    0.8699388703    0.4620132291    0.5569801564          0.0018
H464       H    0.8801068355    0.5273810601    0.4589284099          0.0018
H465       H    0.8245819654    0.5314675979    0.4527986031          0.0018
C466       C    0.7543053809    0.4964887465    0.5052668803          0.0018
C467       C    0.7209638284    0.5018978221    0.4971532669          0.0018
H468       H    0.7576801376    0.4823270270    0.5265094594          0.0018
H469       H    0.7738637394    0.5211036358    0.4683445463          0.0018
C470       C    0.6876371685    0.5015173474    0.4977239790          0.0018
C471       C    0.6543294874    0.5009105690    0.4986341465          0.0018
C472       C    0.6210200766    0.5000000000    0.5000000000          0.0018
C437       C    1.1210200766    0.5000000000    0.5000000000          0.0018
C438       C    1.1413772084    0.5138648971    0.4792026543          0.0018
C439       C    1.1729476968    0.5119543387    0.4820684920          0.0018
C440       C    1.1873738218    0.4957607289    0.5063589066          0.0018
C441       C    1.1662940474    0.4818559490    0.5272160766          0.0018
C442       C    1.1347833156    0.4842240656    0.5236639015          0.0018
C443       C    1.2199205637    0.4927356250    0.5108965624          0.0018
H444       H    1.1877771697    0.5236040376    0.4645939436          0.0018
Br445     Br    1.1300611297    0.5379867709    0.4430198436          0.0018
H446       H    1.1198931645    0.4726189399    0.5410715901          0.0018
H447       H    1.1754180346    0.4685324021    0.5472013969          0.0018
C448       C    1.2456946191    0.5035112535    0.4947331197          0.0018
C449       C    1.2790361716    0.4981021779    0.5028467331          0.0018
H450       H    1.2423198624    0.5176729730    0.4734905406          0.0018
H451       H    1.2261362606    0.4788963642    0.5316554537          0.0018
C452       C    1.3123628315    0.4984826526    0.5022760210          0.0018
C453       C    1.3456705126    0.4990894310    0.5013658535          0.0018
C454       C    1.3789799234    0.5000000000    0.5000000000          0.0018
C419       C    0.6210200766    0.5000000000    0.0000000000          0.0018
C420       C    0.6413772084    0.5079159530    0.0237087041          0.0018
C421       C    0.6729476968    0.5068251486    0.0204416863          0.0018
C422       C    0.6873738218    0.4975796524   -0.0072490709          0.0018
C423       C    0.6662940474    0.4896409289   -0.0310259739          0.0018
C424       C    0.6347833156    0.4909929692   -0.0269765405          0.0018
C425       C    0.7199205637    0.4958525151   -0.0124219397          0.0018
H426       H    0.6877771697    0.5134763677    0.0403624446          0.0018
Br427     Br    0.6300611297    0.5216879715    0.0649566385          0.0018
H428       H    0.6198931645    0.4843671985   -0.0468210795          0.0018
H429       H    0.6754180346    0.4820340516   -0.0538089796          0.0018
C430       C    0.7456946191    0.5020046970    0.0060041751          0.0018
C431       C    0.7790361716    0.4989164672   -0.0032452388          0.0018
H432       H    0.7423198624    0.5100901162    0.0302204396          0.0018
H433       H    0.7261362606    0.4879511988   -0.0360868063          0.0018
C434       C    0.8123628315    0.4991336935   -0.0025946344          0.0018
C435       C    0.8456705126    0.4994801244   -0.0015570553          0.0018
C436       C    0.8789799234    0.5000000000    0.0000000000          0.0018
C401       C    1.1210200766    0.5000000000    0.0000000000          0.0018
C402       C    1.1413772084    0.4862767581    0.0208910888          0.0018
C403       C    1.1729476968    0.4881677967    0.0180123335          0.0018
C404       C    1.1873738218    0.5041959592   -0.0063875691          0.0018
C405       C    1.1662940474    0.5179586765   -0.0273387518          0.0018
C406       C    1.1347833156    0.5156147544   -0.0237705655          0.0018
C407       C    1.2199205637    0.5071901561   -0.0109456782          0.0018
H408       H    1.1877771697    0.4766371207    0.0355656476          0.0018
Br409     Br    1.1300611297    0.4624013332    0.0572369920          0.0018
H410       H    1.1198931645    0.5271013126   -0.0412567185          0.0018
H411       H    1.1754180346    0.5311460990   -0.0474141551          0.0018
C412       C    1.2456946191    0.4965246203    0.0052906205          0.0018
C413       C    1.2790361716    0.5018784324   -0.0028595647          0.0018
H414       H    1.2423198624    0.4825075887    0.0266289497          0.0018
H415       H    1.2261362606    0.5208880237   -0.0317981393          0.0018
C416       C    1.3123628315    0.5015018449   -0.0022862801          0.0018
C417       C    1.3456705126    0.5009012659   -0.0013720101          0.0018
C418       C    1.3789799234    0.5000000000    0.0000000000          0.0018
C383       C    1.0000000000    0.5000000000   -0.1210200766          0.0018
C384       C    1.0249952988    0.5000000000   -0.1413772084          0.0018
C385       C    1.0215509905    0.5000000000   -0.1729476968          0.0018
C386       C    0.9923575454    0.5000000000   -0.1873738218          0.0018
C387       C    0.9672903468    0.5000000000   -0.1662940474          0.0018
C388       C    0.9715595299    0.5000000000   -0.1347833156          0.0018
C389       C    0.9869039618    0.5000000000   -0.2199205637          0.0018
H390       H    1.0425527839    0.5000000000   -0.1877771697          0.0018
Br391     Br    1.0684816252    0.5000000000   -0.1300611297          0.0018
H392       H    0.9506380919    0.5000000000   -0.1198931645          0.0018
H393       H    0.9432709811    0.5000000000   -0.1754180346          0.0018
C394       C    1.0063300023    0.5000000000   -0.2456946191          0.0018
C395       C    0.9965786526    0.5000000000   -0.2790361716          0.0018
H396       H    1.0318604051    0.5000000000   -0.2423198624          0.0018
H397       H    0.9619548795    0.5000000000   -0.2261362606          0.0018
C398       C    0.9972645631    0.5000000000   -0.3123628315          0.0018
C399       C    0.9983584483    0.5000000000   -0.3456705126          0.0018
C400       C    1.0000000000    0.5000000000   -0.3789799234          0.0018
C365       C    1.0000000000    0.5000000000    0.3789799234          0.0018
C366       C    1.0249952988    0.5000000000    0.3586227916          0.0018
C367       C    1.0215509905    0.5000000000    0.3270523032          0.0018
C368       C    0.9923575454    0.5000000000    0.3126261782          0.0018
C369       C    0.9672903468    0.5000000000    0.3337059526          0.0018
C370       C    0.9715595299    0.5000000000    0.3652166844          0.0018
C371       C    0.9869039618    0.5000000000    0.2800794363          0.0018
H372       H    1.0425527839    0.5000000000    0.3122228303          0.0018
Br373     Br    1.0684816252    0.5000000000    0.3699388703          0.0018
H374       H    0.9506380919    0.5000000000    0.3801068355          0.0018
H375       H    0.9432709811    0.5000000000    0.3245819654          0.0018
C376       C    1.0063300023    0.5000000000    0.2543053809          0.0018
C377       C    0.9965786526    0.5000000000    0.2209638284          0.0018
H378       H    1.0318604051    0.5000000000    0.2576801376          0.0018
H379       H    0.9619548795    0.5000000000    0.2738637394          0.0018
C380       C    0.9972645631    0.5000000000    0.1876371685          0.0018
C381       C    0.9983584483    0.5000000000    0.1543294874          0.0018
C382       C    1.0000000000    0.5000000000    0.1210200766          0.0018
C347       C    1.0000000000   -0.3789799234    0.5000000000          0.0018
C348       C    0.9750047012   -0.3586227916    0.5000000000          0.0018
C349       C    0.9784490095   -0.3270523032    0.5000000000          0.0018
C350       C    1.0076424546   -0.3126261782    0.5000000000          0.0018
C351       C    1.0327096532   -0.3337059526    0.5000000000          0.0018
C352       C    1.0284404701   -0.3652166844    0.5000000000          0.0018
C353       C    1.0130960382   -0.2800794363    0.5000000000          0.0018
H354       H    0.9574472161   -0.3122228303    0.5000000000          0.0018
Br355     Br    0.9315183748   -0.3699388703    0.5000000000          0.0018
H356       H    1.0493619081   -0.3801068355    0.5000000000          0.0018
H357       H    1.0567290189   -0.3245819654    0.5000000000          0.0018
C358       C    0.9936699977   -0.2543053809    0.5000000000          0.0018
C359       C    1.0034213474   -0.2209638284    0.5000000000          0.0018
H360       H    0.9681395949   -0.2576801376    0.5000000000          0.0018
H361       H    1.0380451205   -0.2738637394    0.5000000000          0.0018
C362       C    1.0027354369   -0.1876371685    0.5000000000          0.0018
C363       C    1.0016415517   -0.1543294874    0.5000000000          0.0018
C364       C    1.0000000000   -0.1210200766    0.5000000000          0.0018
C329       C    1.0000000000    0.3789799234    0.5000000000          0.0018
C330       C    1.0000000000    0.3586227916    0.5249952988          0.0018
C331       C    1.0000000000    0.3270523032    0.5215509905          0.0018
C332       C    1.0000000000    0.3126261782    0.4923575454          0.0018
C333       C    1.0000000000    0.3337059526    0.4672903468          0.0018
C334       C    1.0000000000    0.3652166844    0.4715595299          0.0018
C335       C    1.0000000000    0.2800794363    0.4869039618          0.0018
H336       H    1.0000000000    0.3122228303    0.5425527839          0.0018
Br337     Br    1.0000000000    0.3699388703    0.5684816252          0.0018
H338       H    1.0000000000    0.3801068355    0.4506380919          0.0018
H339       H    1.0000000000    0.3245819654    0.4432709811          0.0018
C340       C    1.0000000000    0.2543053809    0.5063300023          0.0018
C341       C    1.0000000000    0.2209638284    0.4965786526          0.0018
H342       H    1.0000000000    0.2576801376    0.5318604051          0.0018
H343       H    1.0000000000    0.2738637394    0.4619548795          0.0018
C344       C    1.0000000000    0.1876371685    0.4972645631          0.0018
C345       C    1.0000000000    0.1543294874    0.4983584483          0.0018
C346       C    1.0000000000    0.1210200766    0.5000000000          0.0018
C311       C    0.6210200766   -0.0000000000    0.5000000000          0.0018
C312       C    0.6413772084    0.0028409449    0.4751666757          0.0018
C313       C    0.6729476968    0.0024494677    0.4785886642          0.0018
C314       C    0.6873738218   -0.0008686350    0.5075929300          0.0018
C315       C    0.6662940474   -0.0037177520    0.5324976881          0.0018
C316       C    0.6347833156   -0.0032325202    0.5282561702          0.0018
C317       C    0.7199205637   -0.0014884848    0.5130111733          0.0018
H318       H    0.6877771697    0.0048365140    0.4577229666          0.0018
Br319     Br    0.6300611297    0.0077835645    0.4319621494          0.0018
H320       H    0.6198931645   -0.0056104334    0.5490420330          0.0018
H321       H    0.6754180346   -0.0064477731    0.5563614035          0.0018
C322       C    0.7456946191    0.0007194628    0.4937110174          0.0018
C323       C    0.7790361716   -0.0003888675    0.5033991764          0.0018
H324       H    0.7423198624    0.0036212271    0.4683460567          0.0018
H325       H    0.7261362606   -0.0043241767    0.5377985806          0.0018
C326       C    0.8123628315   -0.0003109075    0.5027177107          0.0018
C327       C    0.8456705126   -0.0001865774    0.5016309141          0.0018
C328       C    0.8789799234   -0.0000000000    0.5000000000          0.0018
C293       C    1.1210200766   -0.0000000000    0.5000000000          0.0018
C294       C    1.1413772084    0.0232381225    0.5092062274          0.0018
C295       C    1.1729476968    0.0200359501    0.5079376255          0.0018
C296       C    1.1873738218   -0.0071051880    0.4971851437          0.0018
C297       C    1.1662940474   -0.0304101557    0.4879524342          0.0018
C298       C    1.1347833156   -0.0264410974    0.4895248527          0.0018
C299       C    1.2199205637   -0.0121753832    0.4951764887          0.0018
H300       H    1.1877771697    0.0395613117    0.5156729715          0.0018
Br301     Br    1.1300611297    0.0636673484    0.5252230398          0.0018
H302       H    1.1198931645   -0.0458917526    0.4818191030          0.0018
H303       H    1.1754180346   -0.0527409535    0.4791056609          0.0018
C304       C    1.2456946191    0.0058850014    0.5023314561          0.0018
C305       C    1.2790361716   -0.0031808258    0.4987398549          0.0018
H306       H    1.2423198624    0.0296206100    0.5117347721          0.0018
H307       H    1.2261362606   -0.0353705383    0.4859872836          0.0018
C308       C    1.3123628315   -0.0025431349    0.4989924884          0.0018
C309       C    1.3456705126   -0.0015261501    0.4993953864          0.0018
C310       C    1.3789799234   -0.0000000000    0.5000000000          0.0018
C275       C    0.0000000000   -0.1210200766   -0.0000000000          0.0018
C276       C    0.0208794861   -0.1413772084    0.0137408887          0.0018
C277       C    0.0180023296   -0.1729476968    0.0118474184          0.0018
C278       C   -0.0063840215   -0.1873738218   -0.0042013548          0.0018
C279       C   -0.0273235681   -0.1662940474   -0.0179817696          0.0018
C280       C   -0.0237573635   -0.1347833156   -0.0156348335          0.0018
C281       C   -0.0109395991   -0.2199205637   -0.0071994020          0.0018
H282       H    0.0355458947   -0.1877771697    0.0233929218          0.0018
Br283     Br    0.0572052029   -0.1300611297    0.0376470152          0.0018
H284       H   -0.0412338048   -0.1198931645   -0.0271361624          0.0018
H285       H   -0.0473878216   -0.1754180346   -0.0311861500          0.0018
C286       C    0.0052876821   -0.2456946191    0.0034798487          0.0018
C287       C   -0.0028579765   -0.2790361716   -0.0018808479          0.0018
H288       H    0.0266141601   -0.2423198624    0.0175149049          0.0018
H289       H   -0.0317804788   -0.2261362606   -0.0209148837          0.0018
C290       C   -0.0022850103   -0.3123628315   -0.0015037761          0.0018
C291       C   -0.0013712481   -0.3456705126   -0.0009024249          0.0018
C292       C   -0.0000000000   -0.3789799234    0.0000000000          0.0018
C257       C   -0.0000000000    0.3789799234    0.0000000000          0.0018
C258       C   -0.0089652136    0.3586227916    0.0233321646          0.0018
C259       C   -0.0077298229    0.3270523032    0.0201170333          0.0018
C260       C    0.0027411650    0.3126261782   -0.0071339419          0.0018
C261       C    0.0117321673    0.3337059526   -0.0305332222          0.0018
C262       C    0.0102009139    0.3652166844   -0.0265481016          0.0018
C263       C    0.0046972345    0.2800794363   -0.0122246556          0.0018
H264       H   -0.0152626620    0.3122228303    0.0397214120          0.0018
Br265     Br   -0.0245627149    0.3699388703    0.0639250031          0.0018
H266       H    0.0177049314    0.3801068355   -0.0460774714          0.0018
H267       H    0.0203473372    0.3245819654   -0.0529543903          0.0018
C268       C   -0.0022704199    0.2543053809    0.0059088174          0.0018
C269       C    0.0012271552    0.2209638284   -0.0031936982          0.0018
H270       H   -0.0114275624    0.2576801376    0.0297404813          0.0018
H271       H    0.0136458714    0.2738637394   -0.0355136789          0.0018
C272       C    0.0009811355    0.1876371685   -0.0025534267          0.0018
C273       C    0.0005887852    0.1543294874   -0.0015323263          0.0018
C274       C   -0.0000000000    0.1210200766    0.0000000000          0.0018
C239       C   -0.1210200766   -0.0000000000    0.0000000000          0.0018
C240       C   -0.1413772084    0.0249245461    0.0018793516          0.0018
C241       C   -0.1729476968    0.0214899875    0.0016203802          0.0018
C242       C   -0.1873738218   -0.0076208216   -0.0005746224          0.0018
C243       C   -0.1662940474   -0.0326170640   -0.0024593800          0.0018
C244       C   -0.1347833156   -0.0283599654   -0.0021383878          0.0018
C245       C   -0.2199205637   -0.0130589681   -0.0009846676          0.0018
H246       H   -0.1877771697    0.0424323324    0.0031994673          0.0018
Br247     Br   -0.1300611297    0.0682877784    0.0051490103          0.0018
H248       H   -0.1198931645   -0.0492221823   -0.0037114331          0.0018
H249       H   -0.1754180346   -0.0565684395   -0.0042653529          0.0018
C250       C   -0.2456946191    0.0063120843    0.0004759415          0.0018
C251       C   -0.2790361716   -0.0034116628   -0.0002572450          0.0018
H252       H   -0.2423198624    0.0317702198    0.0023955266          0.0018
H253       H   -0.2261362606   -0.0379374285   -0.0028605442          0.0018
C254       C   -0.3123628315   -0.0027276938   -0.0002056726          0.0018
C255       C   -0.3456705126   -0.0016369050   -0.0001234253          0.0018
C256       C   -0.3789799234   -0.0000000000    0.0000000000          0.0018
C221       C    0.3789799234   -0.0000000000    0.0000000000          0.0018
C222       C    0.3586227916   -0.0062008872   -0.0242139208          0.0018
C223       C    0.3270523032   -0.0053464158   -0.0208772850          0.0018
C224       C    0.3126261782    0.0018959565    0.0074035438          0.0018
C225       C    0.3337059526    0.0081146808    0.0316871167          0.0018
C226       C    0.3652166844    0.0070555727    0.0275513926          0.0018
C227       C    0.2800794363    0.0032488932    0.0126866430          0.0018
H228       H    0.3122228303   -0.0105565857   -0.0412225414          0.0018
Br229     Br    0.3699388703   -0.0169890681   -0.0663408212          0.0018
H230       H    0.3801068355    0.0122458078    0.0478188055          0.0018
H231       H    0.3245819654    0.0140734564    0.0549556131          0.0018
C232       C    0.2543053809   -0.0015703605   -0.0061321201          0.0018
C233       C    0.2209638284    0.0008487752    0.0033143927          0.0018
H234       H    0.2576801376   -0.0079039975   -0.0308644170          0.0018
H235       H    0.2738637394    0.0094383149    0.0368557921          0.0018
C236       C    0.1876371685    0.0006786130    0.0026499244          0.0018
C237       C    0.1543294874    0.0004072396    0.0015902351          0.0018
C238       C    0.1210200766   -0.0000000000    0.0000000000          0.0018
C203       C   -0.0000000000   -0.0000000000   -0.1210200766          0.0018
C204       C   -0.0000000000   -0.0249952988   -0.1413772084          0.0018
C205       C   -0.0000000000   -0.0215509905   -0.1729476968          0.0018
C206       C   -0.0000000000    0.0076424546   -0.1873738218          0.0018
C207       C   -0.0000000000    0.0327096532   -0.1662940474          0.0018
C208       C   -0.0000000000    0.0284404701   -0.1347833156          0.0018
C209       C   -0.0000000000    0.0130960382   -0.2199205637          0.0018
H210       H   -0.0000000000   -0.0425527839   -0.1877771697          0.0018
Br211     Br   -0.0000000000   -0.0684816252   -0.1300611297          0.0018
H212       H   -0.0000000000    0.0493619081   -0.1198931645          0.0018
H213       H   -0.0000000000    0.0567290189   -0.1754180346          0.0018
C214       C   -0.0000000000   -0.0063300023   -0.2456946191          0.0018
C215       C   -0.0000000000    0.0034213474   -0.2790361716          0.0018
H216       H   -0.0000000000   -0.0318604051   -0.2423198624          0.0018
H217       H   -0.0000000000    0.0380451205   -0.2261362606          0.0018
C218       C   -0.0000000000    0.0027354369   -0.3123628315          0.0018
C219       C   -0.0000000000    0.0016415517   -0.3456705126          0.0018
C220       C   -0.0000000000    0.0000000000   -0.3789799234          0.0018
C185       C   -0.0000000000    0.0000000000    0.3789799234          0.0018
C186       C   -0.0171106133   -0.0182206441    0.3586227916          0.0018
C187       C   -0.0147528009   -0.0157098714    0.3270523032          0.0018
C188       C    0.0052316672    0.0055710654    0.3126261782          0.0018
C189       C    0.0223914998    0.0238441219    0.3337059526          0.0018
C190       C    0.0194690166    0.0207320460    0.3652166844          0.0018
C191       C    0.0089649357    0.0095465253    0.2800794363          0.0018
H192       H   -0.0291296470   -0.0310193985    0.3122228303          0.0018
Br193     Br   -0.0468793199   -0.0499205604    0.3699388703          0.0018
H194       H    0.0337908552    0.0359829970    0.3801068355          0.0018
H195       H    0.0388340349    0.0413533471    0.3245819654          0.0018
C196       C   -0.0043332237   -0.0046143365    0.2543053809          0.0018
C197       C    0.0023420945    0.0024940352    0.2209638284          0.0018
H198       H   -0.0218101442   -0.0232250516    0.2576801376          0.0018
H199       H    0.0260439114    0.0277334794    0.2738637394          0.0018
C200       C    0.0018725522    0.0019940318    0.1876371685          0.0018
C201       C    0.0011237295    0.0011966302    0.1543294874          0.0018
C202       C   -0.0000000000   -0.0000000000    0.1210200766          0.0018
loop_
_geom_bond_atom_site_label_1
_geom_bond_atom_site_label_2
_geom_bond_distance
_geom_bond_site_symmetry_2
_ccdc_geom_bond_type
Zn1          O5 1.942       .   S
Zn1          O6 1.922       .   S
Zn1         O10 1.922       .   S
Zn1         O17 1.922       .   S
Zn2          O5 1.942       .   S
Zn2          O7 1.922       .   S
Zn2          O9 1.922       .   S
Zn2         O13 1.922       .   S
Zn3          O5 1.942       .   S
Zn3          O8 1.922       .   S
Zn3         O11 1.922       .   S
Zn3         O14 1.922       .   S
Zn4          O5 1.942       .   S
Zn4         O12 1.922       .   S
Zn4         O15 1.922       .   S
Zn4         O16 1.922       .   S
O6          C18 1.304       .   A
O7          C19 1.304       .   A
O8          C20 1.304       .   A
O9          C18 1.304       .   A
O10         C20 1.304       .   A
O11         C19 1.304       .   A
O12         C21 1.304       .   A
O13         C22 1.304       .   A
O14         C21 1.304       .   A
O15         C22 1.304       .   A
O16         C23 1.304       .   A
O17         C23 1.304       .   A
C18        C239 1.540       .   S
C19        C274 1.540       .   S
C20        C202 1.540       .   S
C21        C238 1.540       .   S
C22        C203 1.540       .   S
C23        C275 1.540       .   S
Zn24        O28 1.942       .   S
Zn24        O29 1.922       .   S
Zn24        O33 1.922       .   S
Zn24        O40 1.922       .   S
Zn25        O28 1.942       .   S
Zn25        O30 1.922       .   S
Zn25        O32 1.922       .   S
Zn25        O36 1.922       .   S
Zn26        O28 1.942       .   S
Zn26        O31 1.922       .   S
Zn26        O34 1.922       .   S
Zn26        O37 1.922       .   S
Zn27        O28 1.942       .   S
Zn27        O35 1.922       .   S
Zn27        O38 1.922       .   S
Zn27        O39 1.922       .   S
O29         C41 1.304       .   A
O30         C42 1.304       .   A
O31         C43 1.304       .   A
O32         C41 1.304       .   A
O33         C43 1.304       .   A
O34         C42 1.304       .   A
O35         C44 1.304       .   A
O36         C45 1.304       .   A
O37         C44 1.304       .   A
O38         C45 1.304       .   A
O39         C46 1.304       .   A
O40         C46 1.304       .   A
C41        C185 1.540   1_655   S
C42        C293 1.540       .   S
C43        C346 1.540       .   S
C44        C220 1.540   1_656   S
C45        C364 1.540       .   S
C46        C328 1.540       .   S
Zn47        O51 1.942       .   S
Zn47        O52 1.922       .   S
Zn47        O56 1.922       .   S
Zn47        O63 1.922       .   S
Zn48        O51 1.942       .   S
Zn48        O53 1.922       .   S
Zn48        O55 1.922       .   S
Zn48        O59 1.922       .   S
Zn49        O51 1.942       .   S
Zn49        O54 1.922       .   S
Zn49        O57 1.922       .   S
Zn49        O60 1.922       .   S
Zn50        O51 1.942       .   S
Zn50        O58 1.922       .   S
Zn50        O61 1.922       .   S
Zn50        O62 1.922       .   S
O52         C64 1.304       .   A
O53         C65 1.304       .   A
O54         C66 1.304       .   A
O55         C64 1.304       .   A
O56         C66 1.304       .   A
O57         C65 1.304       .   A
O58         C67 1.304       .   A
O59         C68 1.304       .   A
O60         C67 1.304       .   A
O61         C68 1.304       .   A
O62         C69 1.304       .   A
O63         C69 1.304       .   A
C64        C257 1.540   1_655   S
C65        C382 1.540       .   S
C66        C401 1.540       .   S
C67        C292 1.540   1_665   S
C68        C436 1.540       .   S
C69        C383 1.540       .   S
Zn70        O74 1.942       .   S
Zn70        O75 1.922       .   S
Zn70        O79 1.922       .   S
Zn70        O86 1.922       .   S
Zn71        O74 1.942       .   S
Zn71        O76 1.922       .   S
Zn71        O78 1.922       .   S
Zn71        O82 1.922       .   S
Zn72        O74 1.942       .   S
Zn72        O77 1.922       .   S
Zn72        O80 1.922       .   S
Zn72        O83 1.922       .   S
Zn73        O74 1.942       .   S
Zn73        O81 1.922       .   S
Zn73        O84 1.922       .   S
Zn73        O85 1.922       .   S
O75         C87 1.304       .   A
O76         C88 1.304       .   A
O77         C89 1.304       .   A
O78         C87 1.304       .   A
O79         C89 1.304       .   A
O80         C88 1.304       .   A
O81         C90 1.304       .   A
O82         C91 1.304       .   A
O83         C90 1.304       .   A
O84         C91 1.304       .   A
O85         C92 1.304       .   A
O86         C92 1.304       .   A
C87        C329 1.540       .   S
C88        C365 1.540       .   S
C89        C455 1.540       .   S
C90        C347 1.540   1_565   S
C91        C437 1.540       .   S
C92        C400 1.540   1_556   S
Zn93        O97 1.942       .   S
Zn93        O98 1.922       .   S
Zn93       O102 1.922       .   S
Zn93       O109 1.922       .   S
Zn94        O97 1.942       .   S
Zn94        O99 1.922       .   S
Zn94       O101 1.922       .   S
Zn94       O105 1.922       .   S
Zn95        O97 1.942       .   S
Zn95       O100 1.922       .   S
Zn95       O103 1.922       .   S
Zn95       O106 1.922       .   S
Zn96        O97 1.942       .   S
Zn96       O104 1.922       .   S
Zn96       O107 1.922       .   S
Zn96       O108 1.922       .   S
O98        C110 1.304       .   A
O99        C111 1.304       .   A
O100       C112 1.304       .   A
O101       C110 1.304       .   A
O102       C112 1.304       .   A
O103       C111 1.304       .   A
O104       C113 1.304       .   A
O105       C114 1.304       .   A
O106       C113 1.304       .   A
O107       C114 1.304       .   A
O108       C115 1.304       .   A
O109       C115 1.304       .   A
C110       C221 1.540   1_565   S
C111       C473 1.540       .   S
C112       C527 1.540       .   S
C113       C256 1.540   1_665   S
C114       C509 1.540       .   S
C115       C491 1.540       .   S
Zn116      O120 1.942       .   S
Zn116      O121 1.922       .   S
Zn116      O125 1.922       .   S
Zn116      O132 1.922       .   S
Zn117      O120 1.942       .   S
Zn117      O122 1.922       .   S
Zn117      O124 1.922       .   S
Zn117      O128 1.922       .   S
Zn118      O120 1.942       .   S
Zn118      O123 1.922       .   S
Zn118      O126 1.922       .   S
Zn118      O129 1.922       .   S
Zn119      O120 1.942       .   S
Zn119      O127 1.922       .   S
Zn119      O130 1.922       .   S
Zn119      O131 1.922       .   S
O121       C133 1.304       .   A
O122       C134 1.304       .   A
O123       C135 1.304       .   A
O124       C133 1.304       .   A
O125       C135 1.304       .   A
O126       C134 1.304       .   A
O127       C136 1.304       .   A
O128       C137 1.304       .   A
O129       C136 1.304       .   A
O130       C137 1.304       .   A
O131       C138 1.304       .   A
O132       C138 1.304       .   A
C133       C310 1.540   1_465   S
C134       C490 1.540       .   S
C135       C545 1.540       .   S
C136       C311 1.540   1_565   S
C137       C563 1.540       .   S
C138       C508 1.540   1_556   S
Zn139      O143 1.942       .   S
Zn139      O144 1.922       .   S
Zn139      O148 1.922       .   S
Zn139      O155 1.922       .   S
Zn140      O143 1.942       .   S
Zn140      O145 1.922       .   S
Zn140      O147 1.922       .   S
Zn140      O151 1.922       .   S
Zn141      O143 1.942       .   S
Zn141      O146 1.922       .   S
Zn141      O149 1.922       .   S
Zn141      O152 1.922       .   S
Zn142      O143 1.942       .   S
Zn142      O150 1.922       .   S
Zn142      O153 1.922       .   S
Zn142      O154 1.922       .   S
O144       C156 1.304       .   A
O145       C157 1.304       .   A
O146       C158 1.304       .   A
O147       C156 1.304       .   A
O148       C158 1.304       .   A
O149       C157 1.304       .   A
O150       C159 1.304       .   A
O151       C160 1.304       .   A
O152       C159 1.304       .   A
O153       C160 1.304       .   A
O154       C161 1.304       .   A
O155       C161 1.304       .   A
C156       C418 1.540   1_455   S
C157       C526 1.540   1_545   S
C158       C599 1.540       .   S
C159       C419 1.540       .   S
C160       C581 1.540       .   S
C161       C544 1.540       .   S
Zn162      O166 1.942       .   S
Zn162      O167 1.922       .   S
Zn162      O171 1.922       .   S
Zn162      O178 1.922       .   S
Zn163      O166 1.942       .   S
Zn163      O168 1.922       .   S
Zn163      O170 1.922       .   S
Zn163      O174 1.922       .   S
Zn164      O166 1.942       .   S
Zn164      O169 1.922       .   S
Zn164      O172 1.922       .   S
Zn164      O175 1.922       .   S
Zn165      O166 1.942       .   S
Zn165      O173 1.922       .   S
Zn165      O176 1.922       .   S
Zn165      O177 1.922       .   S
O167       C179 1.304       .   A
O168       C180 1.304       .   A
O169       C181 1.304       .   A
O170       C179 1.304       .   A
O171       C181 1.304       .   A
O172       C180 1.304       .   A
O173       C182 1.304       .   A
O174       C183 1.304       .   A
O175       C182 1.304       .   A
O176       C183 1.304       .   A
O177       C184 1.304       .   A
O178       C184 1.304       .   A
C179       C454 1.540   1_455   S
C180       C562 1.540   1_545   S
C181       C598 1.540       .   S
C182       C472 1.540       .   S
C183       C616 1.540   1_556   S
C184       C580 1.540       .   S
C599       C600 0.027       .   A
C599       C604 0.026       .   A
C600       C601 0.027       .   A
C600      Br607 0.038       .   A
C601       C602 0.027       .   A
C601       H606 0.021       .   A
C602       C603 0.027       .   A
C602       C605 0.028       .   A
C603       C604 0.027       .   A
C603       H609 0.021       .   A
C604       H608 0.021       .   A
C605       C610 0.027       .   A
C605       H613 0.021       .   A
C610       C611 0.029       .   A
C610       H612 0.022       .   A
C611       C614 0.028       .   A
C614       C615 0.028       .   A
C615       C616 0.028       .   A
C581       C582 0.027       .   A
C581       C586 0.026       .   A
C582       C583 0.027       .   A
C582      Br589 0.038       .   A
C583       C584 0.027       .   A
C583       H588 0.021       .   A
C584       C585 0.027       .   A
C584       C587 0.028       .   A
C585       C586 0.027       .   A
C585       H591 0.021       .   A
C586       H590 0.021       .   A
C587       C592 0.027       .   A
C587       H595 0.021       .   A
C592       C593 0.029       .   A
C592       H594 0.022       .   A
C593       C596 0.028       .   A
C596       C597 0.028       .   A
C597       C598 0.028       .   A
C563       C564 0.027       .   A
C563       C568 0.026       .   A
C564       C565 0.027       .   A
C564      Br571 0.038       .   A
C565       C566 0.027       .   A
C565       H570 0.021       .   A
C566       C567 0.027       .   A
C566       C569 0.028       .   A
C567       C568 0.027       .   A
C567       H573 0.021       .   A
C568       H572 0.021       .   A
C569       C574 0.027       .   A
C569       H577 0.021       .   A
C574       C575 0.029       .   A
C574       H576 0.022       .   A
C575       C578 0.028       .   A
C578       C579 0.028       .   A
C579       C580 0.028       .   A
C545       C546 0.027       .   A
C545       C550 0.026       .   A
C546       C547 0.027       .   A
C546      Br553 0.038       .   A
C547       C548 0.027       .   A
C547       H552 0.021       .   A
C548       C549 0.027       .   A
C548       C551 0.028       .   A
C549       C550 0.027       .   A
C549       H555 0.021       .   A
C550       H554 0.021       .   A
C551       C556 0.027       .   A
C551       H559 0.021       .   A
C556       C557 0.029       .   A
C556       H558 0.022       .   A
C557       C560 0.028       .   A
C560       C561 0.028       .   A
C561       C562 0.028       .   A
C527       C528 0.027       .   A
C527       C532 0.026       .   A
C528       C529 0.027       .   A
C528      Br535 0.038       .   A
C529       C530 0.027       .   A
C529       H534 0.021       .   A
C530       C531 0.027       .   A
C530       C533 0.028       .   A
C531       C532 0.027       .   A
C531       H537 0.021       .   A
C532       H536 0.021       .   A
C533       C538 0.027       .   A
C533       H541 0.021       .   A
C538       C539 0.029       .   A
C538       H540 0.022       .   A
C539       C542 0.028       .   A
C542       C543 0.028       .   A
C543       C544 0.028       .   A
C509       C510 0.027       .   A
C509       C514 0.026       .   A
C510       C511 0.027       .   A
C510      Br517 0.038       .   A
C511       C512 0.027       .   A
C511       H516 0.021       .   A
C512       C513 0.027       .   A
C512       C515 0.028       .   A
C513       C514 0.027       .   A
C513       H519 0.021       .   A
C514       H518 0.021       .   A
C515       C520 0.027       .   A
C515       H523 0.021       .   A
C520       C521 0.029       .   A
C520       H522 0.022       .   A
C521       C524 0.028       .   A
C524       C525 0.028       .   A
C525       C526 0.028       .   A
C491       C492 0.027       .   A
C491       C496 0.026       .   A
C492       C493 0.027       .   A
C492      Br499 0.038       .   A
C493       C494 0.027       .   A
C493       H498 0.021       .   A
C494       C495 0.027       .   A
C494       C497 0.028       .   A
C495       C496 0.027       .   A
C495       H501 0.021       .   A
C496       H500 0.021       .   A
C497       C502 0.027       .   A
C497       H505 0.021       .   A
C502       C503 0.029       .   A
C502       H504 0.022       .   A
C503       C506 0.028       .   A
C506       C507 0.028       .   A
C507       C508 0.028       .   A
C473       C474 0.027       .   A
C473       C478 0.026       .   A
C474       C475 0.027       .   A
C474      Br481 0.038       .   A
C475       C476 0.027       .   A
C475       H480 0.021       .   A
C476       C477 0.027       .   A
C476       C479 0.028       .   A
C477       C478 0.027       .   A
C477       H483 0.021       .   A
C478       H482 0.021       .   A
C479       C484 0.027       .   A
C479       H487 0.021       .   A
C484       C485 0.029       .   A
C484       H486 0.022       .   A
C485       C488 0.028       .   A
C488       C489 0.028       .   A
C489       C490 0.028       .   A
C455       C456 0.027       .   A
C455       C460 0.026       .   A
C456       C457 0.027       .   A
C456      Br463 0.038       .   A
C457       C458 0.027       .   A
C457       H462 0.021       .   A
C458       C459 0.027       .   A
C458       C461 0.028       .   A
C459       C460 0.027       .   A
C459       H465 0.021       .   A
C460       H464 0.021       .   A
C461       C466 0.027       .   A
C461       H469 0.021       .   A
C466       C467 0.029       .   A
C466       H468 0.022       .   A
C467       C470 0.028       .   A
C470       C471 0.028       .   A
C471       C472 0.028       .   A
C437       C438 0.027       .   A
C437       C442 0.026       .   A
C438       C439 0.027       .   A
C438      Br445 0.038       .   A
C439       C440 0.027       .   A
C439       H444 0.021       .   A
C440       C441 0.027       .   A
C440       C443 0.028       .   A
C441       C442 0.027       .   A
C441       H447 0.021       .   A
C442       H446 0.021       .   A
C443       C448 0.027       .   A
C443       H451 0.021       .   A
C448       C449 0.029       .   A
C448       H450 0.022       .   A
C449       C452 0.028       .   A
C452       C453 0.028       .   A
C453       C454 0.028       .   A
C419       C420 0.027       .   A
C419       C424 0.026       .   A
C420       C421 0.027       .   A
C420      Br427 0.038       .   A
C421       C422 0.027       .   A
C421       H426 0.021       .   A
C422       C423 0.027       .   A
C422       C425 0.028       .   A
C423       C424 0.027       .   A
C423       H429 0.021       .   A
C424       H428 0.021       .   A
C425       C430 0.027       .   A
C425       H433 0.021       .   A
C430       C431 0.029       .   A
C430       H432 0.022       .   A
C431       C434 0.028       .   A
C434       C435 0.028       .   A
C435       C436 0.028       .   A
C401       C402 0.027       .   A
C401       C406 0.026       .   A
C402       C403 0.027       .   A
C402      Br409 0.038       .   A
C403       C404 0.027       .   A
C403       H408 0.021       .   A
C404       C405 0.027       .   A
C404       C407 0.028       .   A
C405       C406 0.027       .   A
C405       H411 0.021       .   A
C406       H410 0.021       .   A
C407       C412 0.027       .   A
C407       H415 0.021       .   A
C412       C413 0.029       .   A
C412       H414 0.022       .   A
C413       C416 0.028       .   A
C416       C417 0.028       .   A
C417       C418 0.028       .   A
C383       C384 0.027       .   A
C383       C388 0.026       .   A
C384       C385 0.027       .   A
C384      Br391 0.038       .   A
C385       C386 0.027       .   A
C385       H390 0.021       .   A
C386       C387 0.027       .   A
C386       C389 0.028       .   A
C387       C388 0.027       .   A
C387       H393 0.021       .   A
C388       H392 0.021       .   A
C389       C394 0.027       .   A
C389       H397 0.021       .   A
C394       C395 0.029       .   A
C394       H396 0.022       .   A
C395       C398 0.028       .   A
C398       C399 0.028       .   A
C399       C400 0.028       .   A
C365       C366 0.027       .   A
C365       C370 0.026       .   A
C366       C367 0.027       .   A
C366      Br373 0.038       .   A
C367       C368 0.027       .   A
C367       H372 0.021       .   A
C368       C369 0.027       .   A
C368       C371 0.028       .   A
C369       C370 0.027       .   A
C369       H375 0.021       .   A
C370       H374 0.021       .   A
C371       C376 0.027       .   A
C371       H379 0.021       .   A
C376       C377 0.029       .   A
C376       H378 0.022       .   A
C377       C380 0.028       .   A
C380       C381 0.028       .   A
C381       C382 0.028       .   A
C347       C348 0.027       .   A
C347       C352 0.026       .   A
C348       C349 0.027       .   A
C348      Br355 0.038       .   A
C349       C350 0.027       .   A
C349       H354 0.021       .   A
C350       C351 0.027       .   A
C350       C353 0.028       .   A
C351       C352 0.027       .   A
C351       H357 0.021       .   A
C352       H356 0.021       .   A
C353       C358 0.027       .   A
C353       H361 0.021       .   A
C358       C359 0.029       .   A
C358       H360 0.022       .   A
C359       C362 0.028       .   A
C362       C363 0.028       .   A
C363       C364 0.028       .   A
C329       C330 0.027       .   A
C329       C334 0.026       .   A
C330       C331 0.027       .   A
C330      Br337 0.038       .   A
C331       C332 0.027       .   A
C331       H336 0.021       .   A
C332       C333 0.027       .   A
C332       C335 0.028       .   A
C333       C334 0.027       .   A
C333       H339 0.021       .   A
C334       H338 0.021       .   A
C335       C340 0.027       .   A
C335       H343 0.021       .   A
C340       C341 0.029       .   A
C340       H342 0.022       .   A
C341       C344 0.028       .   A
C344       C345 0.028       .   A
C345       C346 0.028       .   A
C311       C312 0.027       .   A
C311       C316 0.026       .   A
C312       C313 0.027       .   A
C312      Br319 0.038       .   A
C313       C314 0.027       .   A
C313       H318 0.021       .   A
C314       C315 0.027       .   A
C314       C317 0.028       .   A
C315       C316 0.027       .   A
C315       H321 0.021       .   A
C316       H320 0.021       .   A
C317       C322 0.027       .   A
C317       H325 0.021       .   A
C322       C323 0.029       .   A
C322       H324 0.022       .   A
C323       C326 0.028       .   A
C326       C327 0.028       .   A
C327       C328 0.028       .   A
C293       C294 0.027       .   A
C293       C298 0.026       .   A
C294       C295 0.027       .   A
C294      Br301 0.038       .   A
C295       C296 0.027       .   A
C295       H300 0.021       .   A
C296       C297 0.027       .   A
C296       C299 0.028       .   A
C297       C298 0.027       .   A
C297       H303 0.021       .   A
C298       H302 0.021       .   A
C299       C304 0.027       .   A
C299       H307 0.021       .   A
C304       C305 0.029       .   A
C304       H306 0.022       .   A
C305       C308 0.028       .   A
C308       C309 0.028       .   A
C309       C310 0.028       .   A
C275       C276 0.027       .   A
C275       C280 0.026       .   A
C276       C277 0.027       .   A
C276      Br283 0.038       .   A
C277       C278 0.027       .   A
C277       H282 0.021       .   A
C278       C279 0.027       .   A
C278       C281 0.028       .   A
C279       C280 0.027       .   A
C279       H285 0.021       .   A
C280       H284 0.021       .   A
C281       C286 0.027       .   A
C281       H289 0.021       .   A
C286       C287 0.029       .   A
C286       H288 0.022       .   A
C287       C290 0.028       .   A
C290       C291 0.028       .   A
C291       C292 0.028       .   A
C257       C258 0.027       .   A
C257       C262 0.026       .   A
C258       C259 0.027       .   A
C258      Br265 0.038       .   A
C259       C260 0.027       .   A
C259       H264 0.021       .   A
C260       C261 0.027       .   A
C260       C263 0.028       .   A
C261       C262 0.027       .   A
C261       H267 0.021       .   A
C262       H266 0.021       .   A
C263       C268 0.027       .   A
C263       H271 0.021       .   A
C268       C269 0.029       .   A
C268       H270 0.022       .   A
C269       C272 0.028       .   A
C272       C273 0.028       .   A
C273       C274 0.028       .   A
C239       C240 0.027       .   A
C239       C244 0.026       .   A
C240       C241 0.027       .   A
C240      Br247 0.038       .   A
C241       C242 0.027       .   A
C241       H246 0.021       .   A
C242       C243 0.027       .   A
C242       C245 0.028       .   A
C243       C244 0.027       .   A
C243       H249 0.021       .   A
C244       H248 0.021       .   A
C245       C250 0.027       .   A
C245       H253 0.021       .   A
C250       C251 0.029       .   A
C250       H252 0.022       .   A
C251       C254 0.028       .   A
C254       C255 0.028       .   A
C255       C256 0.028       .   A
C221       C222 0.027       .   A
C221       C226 0.026       .   A
C222       C223 0.027       .   A
C222      Br229 0.038       .   A
C223       C224 0.027       .   A
C223       H228 0.021       .   A
C224       C225 0.027       .   A
C224       C227 0.028       .   A
C225       C226 0.027       .   A
C225       H231 0.021       .   A
C226       H230 0.021       .   A
C227       C232 0.027       .   A
C227       H235 0.021       .   A
C232       C233 0.029       .   A
C232       H234 0.022       .   A
C233       C236 0.028       .   A
C236       C237 0.028       .   A
C237       C238 0.028       .   A
C203       C204 0.027       .   A
C203       C208 0.026       .   A
C204       C205 0.027       .   A
C204      Br211 0.038       .   A
C205       C206 0.027       .   A
C205       H210 0.021       .   A
C206       C207 0.027       .   A
C206       C209 0.028       .   A
C207       C208 0.027       .   A
C207       H213 0.021       .   A
C208       H212 0.021       .   A
C209       C214 0.027       .   A
C209       H217 0.021       .   A
C214       C215 0.029       .   A
C214       H216 0.022       .   A
C215       C218 0.028       .   A
C218       C219 0.028       .   A
C219       C220 0.028       .   A
C185       C186 0.027       .   A
C185       C190 0.026       .   A
C186       C187 0.027       .   A
C186      Br193 0.038       .   A
C187       C188 0.027       .   A
C187       H192 0.021       .   A
C188       C189 0.027       .   A
C188       C191 0.028       .   A
C189       C190 0.027       .   A
C189       H195 0.021       .   A
C190       H194 0.021       .   A
C191       C196 0.027       .   A
C191       H199 0.021       .   A
C196       C197 0.029       .   A
C196       H198 0.022       .   A
C197       C200 0.028       .   A
C200       C201 0.028       .   A
C201       C202 0.028       .   A
