data_pcu_v1-6c_Zn_1_Ch_1-57_fer_tobacco
_audit_creation_date              2021-02-03
_audit_creation_method            'tobacco_3.0'
_symmetry_space_group_name_H-M    'P1'
_symmetry_Int_Tables_number       1
_symmetry_cell_setting            triclinic
loop_
_symmetry_equiv_pos_as_xyz
  x,y,z
_cell_length_a                    33.480162963392345
_cell_length_b                    33.480162963392345
_cell_length_c                    33.480162963392345
_cell_angle_alpha                 90.0
_cell_angle_beta                  90.0
_cell_angle_gamma                 90.0
loop_
_atom_site_label
_atom_site_type_symbol
_atom_site_fract_x
_atom_site_fract_y
_atom_site_fract_z
_atom_site_charge
Zn1       Zn   -0.0334884869   -0.0334884869    0.0334884869          1.4972
Zn2       Zn    0.0334884869    0.0334884869    0.0334884869          1.4936
Zn3       Zn    0.0334884869   -0.0334884869   -0.0334884869          1.4911
Zn4       Zn   -0.0334884869    0.0334884869   -0.0334884869          1.4948
O5         O    0.0000000000    0.0000000000    0.0000000000         -2.1574
O6         O   -0.0246115887   -0.0246115887    0.0895037459         -1.0637
O7         O    0.0895037459    0.0246115887    0.0246115887         -1.0619
O8         O    0.0246115887   -0.0895037459   -0.0246115887         -1.0571
O9         O    0.0246115887    0.0246115887    0.0895037459         -1.0639
O10        O   -0.0246115887   -0.0895037459    0.0246115887         -1.0598
O11        O    0.0895037459   -0.0246115887   -0.0246115887         -1.0657
O12        O   -0.0246115887    0.0246115887   -0.0895037459         -1.0596
O13        O    0.0246115887    0.0895037459    0.0246115887         -1.0672
O14        O    0.0246115887   -0.0246115887   -0.0895037459         -1.0611
O15        O   -0.0246115887    0.0895037459   -0.0246115887         -1.0657
O16        O   -0.0895037459    0.0246115887   -0.0246115887         -1.0648
O17        O   -0.0895037459   -0.0246115887    0.0246115887         -1.0627
C18        C   -0.0000000000   -0.0000000000    0.1070126213          0.4552
C19        C    0.1070126213   -0.0000000000   -0.0000000000          0.4601
C20        C   -0.0000000000   -0.1070126213    0.0000000000          0.4497
C21        C    0.0000000000    0.0000000000   -0.1070126213          0.4534
C22        C    0.0000000000    0.1070126213   -0.0000000000          0.4648
C23        C   -0.1070126213    0.0000000000    0.0000000000          0.4553
Zn24      Zn    1.0334884869    0.0334884869    0.5334884869          1.4972
Zn25      Zn    0.9665115131    0.0334884869    0.4665115131          1.4936
Zn26      Zn    1.0334884869   -0.0334884869    0.4665115131          1.4911
Zn27      Zn    0.9665115131   -0.0334884869    0.5334884869          1.4948
O28        O    1.0000000000    0.0000000000    0.5000000000         -2.1574
O29        O    1.0246115887    0.0895037459    0.5246115887         -1.0637
O30        O    0.9753884113    0.0246115887    0.4104962541         -1.0619
O31        O    1.0895037459   -0.0246115887    0.4753884113         -1.0571
O32        O    0.9753884113    0.0895037459    0.4753884113         -1.0639
O33        O    1.0895037459    0.0246115887    0.5246115887         -1.0598
O34        O    1.0246115887   -0.0246115887    0.4104962541         -1.0657
O35        O    0.9753884113   -0.0895037459    0.5246115887         -1.0596
O36        O    0.9104962541    0.0246115887    0.4753884113         -1.0672
O37        O    1.0246115887   -0.0895037459    0.4753884113         -1.0611
O38        O    0.9104962541   -0.0246115887    0.5246115887         -1.0657
O39        O    0.9753884113   -0.0246115887    0.5895037459         -1.0648
O40        O    1.0246115887    0.0246115887    0.5895037459         -1.0627
C41        C    1.0000000000    0.1070126213    0.5000000000          0.4552
C42        C    1.0000000000    0.0000000000    0.3929873787          0.4601
C43        C    1.1070126213    0.0000000000    0.5000000000          0.4497
C44        C    1.0000000000   -0.1070126213    0.5000000000          0.4534
C45        C    0.8929873787    0.0000000000    0.5000000000          0.4648
C46        C    1.0000000000    0.0000000000    0.6070126213          0.4553
Zn47      Zn    1.0334884869    0.4665115131   -0.0334884869          1.4972
Zn48      Zn    0.9665115131    0.4665115131    0.0334884869          1.4936
Zn49      Zn    1.0334884869    0.5334884869    0.0334884869          1.4911
Zn50      Zn    0.9665115131    0.5334884869   -0.0334884869          1.4948
O51        O    1.0000000000    0.5000000000    0.0000000000         -2.1574
O52        O    1.0246115887    0.4104962541   -0.0246115887         -1.0637
O53        O    0.9753884113    0.4753884113    0.0895037459         -1.0619
O54        O    1.0895037459    0.5246115887    0.0246115887         -1.0571
O55        O    0.9753884113    0.4104962541    0.0246115887         -1.0639
O56        O    1.0895037459    0.4753884113   -0.0246115887         -1.0598
O57        O    1.0246115887    0.5246115887    0.0895037459         -1.0657
O58        O    0.9753884113    0.5895037459   -0.0246115887         -1.0596
O59        O    0.9104962541    0.4753884113    0.0246115887         -1.0672
O60        O    1.0246115887    0.5895037459    0.0246115887         -1.0611
O61        O    0.9104962541    0.5246115887   -0.0246115887         -1.0657
O62        O    0.9753884113    0.5246115887   -0.0895037459         -1.0648
O63        O    1.0246115887    0.4753884113   -0.0895037459         -1.0627
C64        C    1.0000000000    0.3929873787    0.0000000000          0.4552
C65        C    1.0000000000    0.5000000000    0.1070126213          0.4601
C66        C    1.1070126213    0.5000000000    0.0000000000          0.4497
C67        C    1.0000000000    0.6070126213    0.0000000000          0.4534
C68        C    0.8929873787    0.5000000000    0.0000000000          0.4648
C69        C    1.0000000000    0.5000000000   -0.1070126213          0.4553
Zn70      Zn    0.9665115131    0.4665115131    0.5334884869          1.4972
Zn71      Zn    1.0334884869    0.4665115131    0.4665115131          1.4936
Zn72      Zn    0.9665115131    0.5334884869    0.4665115131          1.4911
Zn73      Zn    1.0334884869    0.5334884869    0.5334884869          1.4948
O74        O    1.0000000000    0.5000000000    0.5000000000         -2.1574
O75        O    0.9753884113    0.4104962541    0.5246115887         -1.0637
O76        O    1.0246115887    0.4753884113    0.4104962541         -1.0619
O77        O    0.9104962541    0.5246115887    0.4753884113         -1.0571
O78        O    1.0246115887    0.4104962541    0.4753884113         -1.0639
O79        O    0.9104962541    0.4753884113    0.5246115887         -1.0598
O80        O    0.9753884113    0.5246115887    0.4104962541         -1.0657
O81        O    1.0246115887    0.5895037459    0.5246115887         -1.0596
O82        O    1.0895037459    0.4753884113    0.4753884113         -1.0672
O83        O    0.9753884113    0.5895037459    0.4753884113         -1.0611
O84        O    1.0895037459    0.5246115887    0.5246115887         -1.0657
O85        O    1.0246115887    0.5246115887    0.5895037459         -1.0648
O86        O    0.9753884113    0.4753884113    0.5895037459         -1.0627
C87        C    1.0000000000    0.3929873787    0.5000000000          0.4552
C88        C    1.0000000000    0.5000000000    0.3929873787          0.4601
C89        C    0.8929873787    0.5000000000    0.5000000000          0.4497
C90        C    1.0000000000    0.6070126213    0.5000000000          0.4534
C91        C    1.1070126213    0.5000000000    0.5000000000          0.4648
C92        C    1.0000000000    0.5000000000    0.6070126213          0.4553
Zn93      Zn    0.4665115131    0.9665115131   -0.0334884869          1.4972
Zn94      Zn    0.4665115131    1.0334884869    0.0334884869          1.4936
Zn95      Zn    0.5334884869    0.9665115131    0.0334884869          1.4911
Zn96      Zn    0.5334884869    1.0334884869   -0.0334884869          1.4948
O97        O    0.5000000000    1.0000000000    0.0000000000         -2.1574
O98        O    0.4104962541    0.9753884113   -0.0246115887         -1.0637
O99        O    0.4753884113    1.0246115887    0.0895037459         -1.0619
O100       O    0.5246115887    0.9104962541    0.0246115887         -1.0571
O101       O    0.4104962541    1.0246115887    0.0246115887         -1.0639
O102       O    0.4753884113    0.9104962541   -0.0246115887         -1.0598
O103       O    0.5246115887    0.9753884113    0.0895037459         -1.0657
O104       O    0.5895037459    1.0246115887   -0.0246115887         -1.0596
O105       O    0.4753884113    1.0895037459    0.0246115887         -1.0672
O106       O    0.5895037459    0.9753884113    0.0246115887         -1.0611
O107       O    0.5246115887    1.0895037459   -0.0246115887         -1.0657
O108       O    0.5246115887    1.0246115887   -0.0895037459         -1.0648
O109       O    0.4753884113    0.9753884113   -0.0895037459         -1.0627
C110       C    0.3929873787    1.0000000000    0.0000000000          0.4552
C111       C    0.5000000000    1.0000000000    0.1070126213          0.4601
C112       C    0.5000000000    0.8929873787    0.0000000000          0.4497
C113       C    0.6070126213    1.0000000000    0.0000000000          0.4534
C114       C    0.5000000000    1.1070126213    0.0000000000          0.4648
C115       C    0.5000000000    1.0000000000   -0.1070126213          0.4553
Zn116     Zn    0.4665115131    1.0334884869    0.5334884869          1.4972
Zn117     Zn    0.4665115131    0.9665115131    0.4665115131          1.4936
Zn118     Zn    0.5334884869    1.0334884869    0.4665115131          1.4911
Zn119     Zn    0.5334884869    0.9665115131    0.5334884869          1.4948
O120       O    0.5000000000    1.0000000000    0.5000000000         -2.1574
O121       O    0.4104962541    1.0246115887    0.5246115887         -1.0637
O122       O    0.4753884113    0.9753884113    0.4104962541         -1.0619
O123       O    0.5246115887    1.0895037459    0.4753884113         -1.0571
O124       O    0.4104962541    0.9753884113    0.4753884113         -1.0639
O125       O    0.4753884113    1.0895037459    0.5246115887         -1.0598
O126       O    0.5246115887    1.0246115887    0.4104962541         -1.0657
O127       O    0.5895037459    0.9753884113    0.5246115887         -1.0596
O128       O    0.4753884113    0.9104962541    0.4753884113         -1.0672
O129       O    0.5895037459    1.0246115887    0.4753884113         -1.0611
O130       O    0.5246115887    0.9104962541    0.5246115887         -1.0657
O131       O    0.5246115887    0.9753884113    0.5895037459         -1.0648
O132       O    0.4753884113    1.0246115887    0.5895037459         -1.0627
C133       C    0.3929873787    1.0000000000    0.5000000000          0.4552
C134       C    0.5000000000    1.0000000000    0.3929873787          0.4601
C135       C    0.5000000000    1.1070126213    0.5000000000          0.4497
C136       C    0.6070126213    1.0000000000    0.5000000000          0.4534
C137       C    0.5000000000    0.8929873787    0.5000000000          0.4648
C138       C    0.5000000000    1.0000000000    0.6070126213          0.4553
Zn139     Zn    0.4665115131    0.5334884869   -0.0334884869          1.4972
Zn140     Zn    0.4665115131    0.4665115131    0.0334884869          1.4936
Zn141     Zn    0.5334884869    0.4665115131   -0.0334884869          1.4911
Zn142     Zn    0.5334884869    0.5334884869    0.0334884869          1.4948
O143       O    0.5000000000    0.5000000000    0.0000000000         -2.1574
O144       O    0.4104962541    0.5246115887   -0.0246115887         -1.0637
O145       O    0.4753884113    0.4104962541    0.0246115887         -1.0619
O146       O    0.5246115887    0.4753884113   -0.0895037459         -1.0571
O147       O    0.4104962541    0.4753884113    0.0246115887         -1.0639
O148       O    0.4753884113    0.5246115887   -0.0895037459         -1.0598
O149       O    0.5246115887    0.4104962541   -0.0246115887         -1.0657
O150       O    0.5895037459    0.5246115887    0.0246115887         -1.0596
O151       O    0.4753884113    0.4753884113    0.0895037459         -1.0672
O152       O    0.5895037459    0.4753884113   -0.0246115887         -1.0611
O153       O    0.5246115887    0.5246115887    0.0895037459         -1.0657
O154       O    0.5246115887    0.5895037459    0.0246115887         -1.0648
O155       O    0.4753884113    0.5895037459   -0.0246115887         -1.0627
C156       C    0.3929873787    0.5000000000    0.0000000000          0.4552
C157       C    0.5000000000    0.3929873787    0.0000000000          0.4601
C158       C    0.5000000000    0.5000000000   -0.1070126213          0.4497
C159       C    0.6070126213    0.5000000000    0.0000000000          0.4534
C160       C    0.5000000000    0.5000000000    0.1070126213          0.4648
C161       C    0.5000000000    0.6070126213    0.0000000000          0.4553
Zn162     Zn    0.4665115131    0.5334884869    0.4665115131          1.4972
Zn163     Zn    0.4665115131    0.4665115131    0.5334884869          1.4936
Zn164     Zn    0.5334884869    0.4665115131    0.4665115131          1.4911
Zn165     Zn    0.5334884869    0.5334884869    0.5334884869          1.4948
O166       O    0.5000000000    0.5000000000    0.5000000000         -2.1574
O167       O    0.4104962541    0.5246115887    0.4753884113         -1.0637
O168       O    0.4753884113    0.4104962541    0.5246115887         -1.0619
O169       O    0.5246115887    0.4753884113    0.4104962541         -1.0571
O170       O    0.4104962541    0.4753884113    0.5246115887         -1.0639
O171       O    0.4753884113    0.5246115887    0.4104962541         -1.0598
O172       O    0.5246115887    0.4104962541    0.4753884113         -1.0657
O173       O    0.5895037459    0.5246115887    0.5246115887         -1.0596
O174       O    0.4753884113    0.4753884113    0.5895037459         -1.0672
O175       O    0.5895037459    0.4753884113    0.4753884113         -1.0611
O176       O    0.5246115887    0.5246115887    0.5895037459         -1.0657
O177       O    0.5246115887    0.5895037459    0.5246115887         -1.0648
O178       O    0.4753884113    0.5895037459    0.4753884113         -1.0627
C179       C    0.3929873787    0.5000000000    0.5000000000          0.4552
C180       C    0.5000000000    0.3929873787    0.5000000000          0.4601
C181       C    0.5000000000    0.5000000000    0.3929873787          0.4497
C182       C    0.6070126213    0.5000000000    0.5000000000          0.4534
C183       C    0.5000000000    0.5000000000    0.6070126213          0.4648
C184       C    0.5000000000    0.6070126213    0.5000000000          0.4553
C829       C    0.5000000000    0.5000000000   -0.3469899921         -0.3162
C830       C    0.5357547519    0.5058033590   -0.3297858051         -0.3118
C831       C    0.5402472274    0.5142821007   -0.2908809940         -0.3069
C832       C    0.5085875871    0.5131243186   -0.2660534675         -0.3103
C833       C    0.4721390280    0.5073126901   -0.2827353276         -0.3148
C834       C    0.4685585140    0.5018101495   -0.3224881858         -0.3168
C835       C    0.5176577157    0.5173914174   -0.2205373298         -0.3099
C836       C    0.5823446895    0.5274700029   -0.2769915048         -0.2952
O837       O    0.5700259700    0.5012419121   -0.3486731341         -0.3142
H838       H    0.4388865380    0.4977177528   -0.3351464873          0.6801
C839       C    0.4334734911    0.5085362489   -0.2589389288         -0.3159
H840       H    0.5963385183    0.5472592915   -0.2988826293         -0.2747
H841       H    0.5824632464    0.5452646500   -0.2497711076         -0.2807
H842       H    0.6021301074    0.5018205381   -0.2731157632          0.6805
O843       O    0.4851147644    0.5124326549   -0.1922802875         -0.3172
C844       C    0.5444078510    0.4905853091   -0.1595966400          0.6601
C845       C    0.5469607214    0.4852955695   -0.2044764529          0.6588
H846       H    0.5780319729    0.4888679401   -0.2132526012          0.6632
H847       H    0.5632918010    0.5158617201   -0.1511187670         -0.3166
H848       H    0.5541817282    0.4639718370   -0.1434375427          0.6338
H849       H    0.5370916343    0.4554118839   -0.2131536556          0.6313
H850       H    0.4843043831    0.4726170800   -0.1445672238          0.6414
C851       C    0.5000000000    0.5000000000   -0.1530100079           0.668
H852       H    0.5297950975    0.5471783309   -0.2147853089         -0.2822
H853       H    0.5861122099    0.4964607418   -0.3247840508          0.6795
H854       H    0.4325916196    0.5346451961   -0.2393566959          -0.293
H855       H    0.4300711731    0.4815552486   -0.2409405409          0.6571
H856       H    0.4073272881    0.5108701351   -0.2783275862         -0.3124
C801       C    0.5000000000    0.5000000000    0.3469899921         -0.3162
C802       C    0.4642452481    0.5058033590    0.3297858051         -0.3118
C803       C    0.4597527726    0.5142821007    0.2908809940         -0.3069
C804       C    0.4914124129    0.5131243186    0.2660534675         -0.3103
C805       C    0.5278609720    0.5073126901    0.2827353276         -0.3148
C806       C    0.5314414860    0.5018101495    0.3224881858         -0.3168
C807       C    0.4823422843    0.5173914174    0.2205373298         -0.3099
C808       C    0.4176553105    0.5274700029    0.2769915048         -0.2952
O809       O    0.4299740300    0.5012419121    0.3486731341         -0.3142
H810       H    0.5611134620    0.4977177528    0.3351464873          0.6801
C811       C    0.5665265089    0.5085362489    0.2589389288         -0.3159
H812       H    0.4036614817    0.5472592915    0.2988826293         -0.2747
H813       H    0.4175367536    0.5452646500    0.2497711076         -0.2807
H814       H    0.3978698926    0.5018205381    0.2731157632          0.6805
O815       O    0.5148852356    0.5124326549    0.1922802875         -0.3172
C816       C    0.4555921490    0.4905853091    0.1595966400          0.6601
C817       C    0.4530392786    0.4852955695    0.2044764529          0.6588
H818       H    0.4219680271    0.4888679401    0.2132526012          0.6632
H819       H    0.4367081990    0.5158617201    0.1511187670         -0.3166
H820       H    0.4458182718    0.4639718370    0.1434375427          0.6338
H821       H    0.4629083657    0.4554118839    0.2131536556          0.6313
H822       H    0.5156956169    0.4726170800    0.1445672238          0.6414
C823       C    0.5000000000    0.5000000000    0.1530100079           0.668
H824       H    0.4702049025    0.5471783309    0.2147853089         -0.2822
H825       H    0.4138877901    0.4964607418    0.3247840508          0.6795
H826       H    0.5674083804    0.5346451961    0.2393566959          -0.293
H827       H    0.5699288269    0.4815552486    0.2409405409          0.6571
H828       H    0.5926727119    0.5108701351    0.2783275862         -0.3124
C773       C    0.5000000000    0.8469899921    0.5000000000         -0.3162
C774       C    0.4922252060    0.8297858051    0.4646215625         -0.3118
C775       C    0.4984530135    0.7908809940    0.4573218493         -0.3069
C776       C    0.5090383313    0.7660534675    0.4871819285         -0.3103
C777       C    0.5170609981    0.7827353276    0.5232084368         -0.3148
C778       C    0.5132642146    0.8224881858    0.5285640385         -0.3168
C779       C    0.5096644619    0.7205373298    0.4771777631         -0.3099
C780       C    0.4952072365    0.7769915048    0.4133265995         -0.2952
O781       O    0.4753608210    0.8486731341    0.4344401824         -0.3142
H782       H    0.5203891063    0.8351464873    0.5576571611          0.6801
C783       C    0.5324408146    0.7589389288    0.5587046631         -0.3159
H784       H    0.5084505499    0.7988826293    0.3930273916         -0.2747
H785       H    0.5117070518    0.7497711076    0.4066617951         -0.2807
H786       H    0.4640733395    0.7731157632    0.4043801890          0.6805
O787       O    0.5170414146    0.6922802875    0.5092591217         -0.3172
C788       C    0.4748898220    0.6595966400    0.4621823771          0.6601
C789       C    0.4690316709    0.7044764529    0.4617574553          0.6588
H790       H    0.4609078996    0.7132526012    0.4315549911          0.6632
H791       H    0.4914331965    0.6511187670    0.4353157197         -0.3166
H792       H    0.4465474070    0.6434375427    0.4628986727          0.6338
H793       H    0.4448843779    0.7131536556    0.4819401652          0.6313
H794       H    0.4803238185    0.6445672238    0.5246784234          0.6414
C795       C    0.5000000000    0.6530100079    0.5000000000           0.668
H796       H    0.5328862703    0.7147853089    0.4549218904         -0.2822
H797       H    0.4649905215    0.8247840508    0.4212461082          0.6795
H798       H    0.5570388457    0.7393566959    0.5499074087          -0.293
H799       H    0.5086101086    0.7409405409    0.5718060980          0.6571
H800       H    0.5442414463    0.7783275862    0.5821528198         -0.3124
C745       C    0.5000000000    1.1530100079    0.5000000000         -0.3162
C746       C    0.4642452481    1.1702141949    0.5058033590         -0.3118
C747       C    0.4597527726    1.2091190060    0.5142821007         -0.3069
C748       C    0.4914124129    1.2339465325    0.5131243186         -0.3103
C749       C    0.5278609720    1.2172646724    0.5073126901         -0.3148
C750       C    0.5314414860    1.1775118142    0.5018101495         -0.3168
C751       C    0.4823422843    1.2794626702    0.5173914174         -0.3099
C752       C    0.4176553105    1.2230084952    0.5274700029         -0.2952
O753       O    0.4299740300    1.1513268659    0.5012419121         -0.3142
H754       H    0.5611134620    1.1648535127    0.4977177528          0.6801
C755       C    0.5665265089    1.2410610712    0.5085362489         -0.3159
H756       H    0.4036614817    1.2011173707    0.5472592915         -0.2747
H757       H    0.4175367536    1.2502288924    0.5452646500         -0.2807
H758       H    0.3978698926    1.2268842368    0.5018205381          0.6805
O759       O    0.5148852356    1.3077197125    0.5124326549         -0.3172
C760       C    0.4555921490    1.3404033600    0.4905853091          0.6601
C761       C    0.4530392786    1.2955235471    0.4852955695          0.6588
H762       H    0.4219680271    1.2867473988    0.4888679401          0.6632
H763       H    0.4367081990    1.3488812330    0.5158617201         -0.3166
H764       H    0.4458182718    1.3565624573    0.4639718370          0.6338
H765       H    0.4629083657    1.2868463444    0.4554118839          0.6313
H766       H    0.5156956169    1.3554327762    0.4726170800          0.6414
C767       C    0.5000000000    1.3469899921    0.5000000000           0.668
H768       H    0.4702049025    1.2852146911    0.5471783309         -0.2822
H769       H    0.4138877901    1.1752159492    0.4964607418          0.6795
H770       H    0.5674083804    1.2606433041    0.5346451961          -0.293
H771       H    0.5699288269    1.2590594591    0.4815552486          0.6571
H772       H    0.5926727119    1.2216724138    0.5108701351         -0.3124
C717       C    0.5000000000    0.6530100079    0.0000000000         -0.3162
C718       C    0.5121828933    0.6702141949    0.0341124372         -0.3118
C719       C    0.5213350499    0.7091190060    0.0369950451         -0.3069
C720       C    0.5144625709    0.7339465325    0.0060686435         -0.3103
C721       C    0.5021458901    0.7172646724   -0.0287246297         -0.3148
C722       C    0.4960858817    0.6775118142   -0.0312493738         -0.3168
C723       C    0.5203017860    0.7794626702    0.0142159701         -0.3099
C724       C    0.5419290899    0.7230084952    0.0760078967         -0.2952
O725       O    0.5139037020    0.6513268659    0.0686430323         -0.3142
H726       H    0.4866873016    0.6648535127   -0.0596894961          0.6801
C727       C    0.4963465416    0.7410610712   -0.0669723538         -0.3159
H728       H    0.5639255311    0.7011173707    0.0861862937         -0.2747
H729       H    0.5594509394    0.7502288924    0.0729017239         -0.2807
H730       H    0.5202871047    0.7268842368    0.1001114708          0.6805
O731       O    0.5095312079    0.8077197125   -0.0168907437         -0.3172
C732       C    0.4987836571    0.8404033600    0.0453785648          0.6601
C733       C    0.4940437412    0.7955235471    0.0488472375          0.6588
H734       H    0.5031843162    0.7867473988    0.0787576770          0.6632
H735       H    0.5270621249    0.8488812330    0.0593724485         -0.3166
H736       H    0.4743804270    0.8565624573    0.0598107488          0.6338
H737       H    0.4628668612    0.7868463444    0.0445535569          0.6313
H738       H    0.4702272940    0.8554327762   -0.0104767683          0.6414
C739       C    0.5000000000    0.8469899921    0.0000000000           0.668
H740       H    0.5517943027    0.7852146911    0.0207579610         -0.2822
H741       H    0.5121149591    0.6752159492    0.0853291674          0.6795
H742       H    0.5218640115    0.7606433041   -0.0725682049          -0.293
H743       H    0.4691955348    0.7590594591   -0.0654319082          0.6571
H744       H    0.4939065220    0.7216724138   -0.0931088658         -0.3124
C689       C    0.5000000000    1.3469899921    0.0000000000         -0.3162
C690       C    0.5334831837    1.3297858051   -0.0138187435         -0.3118
C691       C    0.5417561559    1.2908809940   -0.0089577427         -0.3069
C692       C    0.5141965444    1.2660534675    0.0066672722         -0.3103
C693       C    0.4801183770    1.2827353276    0.0208429908         -0.3148
C694       C    0.4741832696    1.3224881858    0.0180371871         -0.3168
C695       C    0.5241568243    1.2205373298    0.0055411336         -0.3099
C696       C    0.5845133494    1.2769915048   -0.0198177376         -0.2952
O697       O    0.5602653887    1.3486731341   -0.0356827934         -0.3142
H698       H    0.4467760924    1.3351464873    0.0301210814          0.6801
C699       C    0.4478439780    1.2589389288    0.0421710007         -0.3159
H700       H    0.6068091451    1.2988826293   -0.0103129660         -0.2747
H701       H    0.5939504736    1.2497711076   -0.0047311804         -0.2807
H702       H    0.5878995432    1.2731157632   -0.0520340610          0.6805
O703       O    0.4938510071    1.1922802875    0.0183937770         -0.3172
C704       C    0.5328653030    1.1595966400   -0.0313139825          0.6601
C705       C    0.5322632554    1.2044764529   -0.0371565873          0.6588
H706       H    0.5605888113    1.2132526012   -0.0504173333          0.6632
H707       H    0.5622029982    1.1511187670   -0.0197036355         -0.3166
H708       H    0.5272227936    1.1434375427   -0.0590982885          0.6338
H709       H    0.5081827353    1.2131536556   -0.0574189191          0.6313
H710       H    0.4722713567    1.1445672238   -0.0150764398          0.6414
C711       C    0.5000000000    1.1530100079    0.0000000000           0.668
H712       H    0.5501175935    1.2147853089    0.0245309918         -0.2822
H713       H    0.5714512605    1.3247840508   -0.0481929084          0.6795
H714       H    0.4607916343    1.2393566959    0.0648604920          -0.293
H715       H    0.4307916145    1.2409405409    0.0209868782          0.6571
H716       H    0.4268099600    1.2783275862    0.0578758102         -0.3124
C661       C    0.5000000000    1.0000000000   -0.3469899921         -0.3162
C662       C    0.5058033590    0.9642452481   -0.3297858051         -0.3118
C663       C    0.5142821007    0.9597527726   -0.2908809940         -0.3069
C664       C    0.5131243186    0.9914124129   -0.2660534675         -0.3103
C665       C    0.5073126901    1.0278609720   -0.2827353276         -0.3148
C666       C    0.5018101495    1.0314414860   -0.3224881858         -0.3168
C667       C    0.5173914174    0.9823422843   -0.2205373298         -0.3099
C668       C    0.5274700029    0.9176553105   -0.2769915048         -0.2952
O669       O    0.5012419121    0.9299740300   -0.3486731341         -0.3142
H670       H    0.4977177528    1.0611134620   -0.3351464873          0.6801
C671       C    0.5085362489    1.0665265089   -0.2589389288         -0.3159
H672       H    0.5472592915    0.9036614817   -0.2988826293         -0.2747
H673       H    0.5452646500    0.9175367536   -0.2497711076         -0.2807
H674       H    0.5018205381    0.8978698926   -0.2731157632          0.6805
O675       O    0.5124326549    1.0148852356   -0.1922802875         -0.3172
C676       C    0.4905853091    0.9555921490   -0.1595966400          0.6601
C677       C    0.4852955695    0.9530392786   -0.2044764529          0.6588
H678       H    0.4888679401    0.9219680271   -0.2132526012          0.6632
H679       H    0.5158617201    0.9367081990   -0.1511187670         -0.3166
H680       H    0.4639718370    0.9458182718   -0.1434375427          0.6338
H681       H    0.4554118839    0.9629083657   -0.2131536556          0.6313
H682       H    0.4726170800    1.0156956169   -0.1445672238          0.6414
C683       C    0.5000000000    1.0000000000   -0.1530100079           0.668
H684       H    0.5471783309    0.9702049025   -0.2147853089         -0.2822
H685       H    0.4964607418    0.9138877901   -0.3247840508          0.6795
H686       H    0.5346451961    1.0674083804   -0.2393566959          -0.293
H687       H    0.4815552486    1.0699288269   -0.2409405409          0.6571
H688       H    0.5108701351    1.0926727119   -0.2783275862         -0.3124
C633       C    0.5000000000    1.0000000000    0.3469899921         -0.3162
C634       C    0.4642452481    1.0058033590    0.3297858051         -0.3118
C635       C    0.4597527726    1.0142821007    0.2908809940         -0.3069
C636       C    0.4914124129    1.0131243186    0.2660534675         -0.3103
C637       C    0.5278609720    1.0073126901    0.2827353276         -0.3148
C638       C    0.5314414860    1.0018101495    0.3224881858         -0.3168
C639       C    0.4823422843    1.0173914174    0.2205373298         -0.3099
C640       C    0.4176553105    1.0274700029    0.2769915048         -0.2952
O641       O    0.4299740300    1.0012419121    0.3486731341         -0.3142
H642       H    0.5611134620    0.9977177528    0.3351464873          0.6801
C643       C    0.5665265089    1.0085362489    0.2589389288         -0.3159
H644       H    0.4036614817    1.0472592915    0.2988826293         -0.2747
H645       H    0.4175367536    1.0452646500    0.2497711076         -0.2807
H646       H    0.3978698926    1.0018205381    0.2731157632          0.6805
O647       O    0.5148852356    1.0124326549    0.1922802875         -0.3172
C648       C    0.4555921490    0.9905853091    0.1595966400          0.6601
C649       C    0.4530392786    0.9852955695    0.2044764529          0.6588
H650       H    0.4219680271    0.9888679401    0.2132526012          0.6632
H651       H    0.4367081990    1.0158617201    0.1511187670         -0.3166
H652       H    0.4458182718    0.9639718370    0.1434375427          0.6338
H653       H    0.4629083657    0.9554118839    0.2131536556          0.6313
H654       H    0.5156956169    0.9726170800    0.1445672238          0.6414
C655       C    0.5000000000    1.0000000000    0.1530100079           0.668
H656       H    0.4702049025    1.0471783309    0.2147853089         -0.2822
H657       H    0.4138877901    0.9964607418    0.3247840508          0.6795
H658       H    0.5674083804    1.0346451961    0.2393566959          -0.293
H659       H    0.5699288269    0.9815552486    0.2409405409          0.6571
H660       H    0.5926727119    1.0108701351    0.2783275862         -0.3124
C605       C    0.8469899921    0.5000000000    0.5000000000         -0.3162
C606       C    0.8297858051    0.4725651847    0.5236518957         -0.3118
C607       C    0.7908809940    0.4731724961    0.5332280416         -0.3069
C608       C    0.7660534675    0.4995478332    0.5156776891         -0.3103
C609       C    0.7827353276    0.5275696003    0.4916557604         -0.3148
C610       C    0.8224881858    0.5277421811    0.4850931200         -0.3168
C611       C    0.7205373298    0.4940505209    0.5240595100         -0.3099
C612       C    0.7769915048    0.4441957183    0.5664915866         -0.2952
O613       O    0.8486731341    0.4409720202    0.5376945144         -0.3142
H614       H    0.8351464873    0.5508882564    0.4660817270          0.6801
C615       C    0.7589389288    0.5611613897    0.4724695017         -0.3159
H616       H    0.7988826293    0.4426232030    0.5906777476         -0.2747
H617       H    0.7497711076    0.4534044700    0.5817186156         -0.2807
H618       H    0.7731157632    0.4139148701    0.5549838486          0.6805
O619       O    0.6922802875    0.5191900420    0.5028077458         -0.3172
C620       C    0.6595966400    0.4572290504    0.5152098491          0.6601
C621       C    0.7044764529    0.4522859547    0.5120374214          0.6588
H622       H    0.7132526012    0.4276753183    0.5313377083          0.6632
H623       H    0.6511187670    0.4543598110    0.5466306700         -0.3166
H624       H    0.6434375427    0.4349759161    0.4976427326          0.6338
H625       H    0.7131536556    0.4450620932    0.4814065650          0.6313
H626       H    0.6445672238    0.4990499880    0.4684520338          0.6414
C627       C    0.6530100079    0.5000000000    0.5000000000           0.668
H628       H    0.7147853089    0.4992906610    0.5557946196         -0.2822
H629       H    0.8247840508    0.4247615524    0.5420358781          0.6795
H630       H    0.7393566959    0.5755725979    0.4942587627          -0.293
H631       H    0.7409405409    0.5499450251    0.4476956584          0.6571
H632       H    0.7783275862    0.5846648185    0.4607793437         -0.3124
C577       C    1.1530100079    0.5000000000    0.5000000000         -0.3162
C578       C    1.1702141949    0.5353824058    0.4922432852         -0.3118
C579       C    1.2091190060    0.5426789356    0.4984748219         -0.3069
C580       C    1.2339465325    0.5128134513    0.5090448801         -0.3103
C581       C    1.2172646724    0.4767828481    0.5170491365         -0.3148
C582       C    1.1775118142    0.4714291873    0.5132496169         -0.3168
C583       C    1.2794626702    0.5228172955    0.5096761227         -0.3099
C584       C    1.2230084952    0.5866758383    0.4952515266         -0.2952
O585       O    1.1513268659    0.5655723994    0.4753943248         -0.3142
H586       H    1.1648535127    0.4423324277    0.5203596413          0.6801
C587       C    1.2410610712    0.4412787675    0.5324108128         -0.3159
H588       H    1.2011173707    0.6069682763    0.5085052110         -0.2747
H589       H    1.2502288924    0.5933322105    0.5117547454         -0.2807
H590       H    1.2268842368    0.5956381568    0.4641222052          0.6805
O591       O    1.3077197125    0.4907321715    0.5170366810         -0.3172
C592       C    1.3404033600    0.5378304490    0.4749091498          0.6601
C593       C    1.2955235471    0.5382583643    0.4690512166          0.6588
H594       H    1.2867473988    0.5684649757    0.4609428796          0.6632
H595       H    1.3488812330    0.5646886494    0.4914662508         -0.3166
H596       H    1.3565624573    0.5371286364    0.4465663724          0.6338
H597       H    1.2868463444    0.5180879961    0.4448936135          0.6313
H598       H    1.3554327762    0.4753316342    0.4803112106          0.6414
C599       C    1.3469899921    0.5000000000    0.5000000000           0.668
H600       H    1.2852146911    0.5450612991    0.5329093006         -0.2822
H601       H    1.1752159492    0.5787717711    0.4650307688          0.6795
H602       H    1.2606433041    0.4500634514    0.5570133360          -0.293
H603       H    1.2590594591    0.4281895117    0.5085734151          0.6571
H604       H    1.2216724138    0.4178245839    0.5441994610         -0.3124
C549       C    0.8469899921    0.5000000000    0.0000000000         -0.3162
C550       C    0.8297858051    0.4820427841    0.0314582208         -0.3118
C551       C    0.7908809940    0.4858143167    0.0402813121         -0.3069
C552       C    0.7660534675    0.5048112722    0.0149280290         -0.3103
C553       C    0.7827353276    0.5231981010   -0.0170750492         -0.3148
C554       C    0.8224881858    0.5211683789   -0.0233183065         -0.3168
C555       C    0.7205373298    0.5024299150    0.0246647894         -0.3099
C556       C    0.7769915048    0.4696147004    0.0813140979         -0.2952
O557       O    0.8486731341    0.4569559442    0.0552484215         -0.3142
H558       H    0.8351464873    0.5366335091   -0.0489698876          0.6801
C559       C    0.7589389288    0.5484503997   -0.0463810596         -0.3159
H560       H    0.7988826293    0.4762124241    0.1046360453         -0.2747
H561       H    0.7497711076    0.4833812988    0.0925899256         -0.2807
H562       H    0.7731157632    0.4372291486    0.0805834562          0.6805
O563       O    0.6922802875    0.5190255205   -0.0037644013         -0.3172
C564       C    0.6595966400    0.4647674998    0.0286245449          0.6601
C565       C    0.7044764529    0.4590485793    0.0272857246          0.6588
H566       H    0.7132526012    0.4422995410    0.0536988694          0.6632
H567       H    0.6511187670    0.4725598888    0.0591987038         -0.3166
H568       H    0.6434375427    0.4379241905    0.0195008223          0.6338
H569       H    0.7131536556    0.4420068632    0.0008279573          0.6313
H570       H    0.6445672238    0.4885653079   -0.0294180984          0.6414
C571       C    0.6530100079    0.5000000000    0.0000000000           0.668
H572       H    0.7147853089    0.5179707776    0.0528260721         -0.2822
H573       H    0.8247840508    0.4431271251    0.0647558117          0.6795
H574       H    0.7393566959    0.5693128140   -0.0306580035          -0.293
H575       H    0.7409405409    0.5296022164   -0.0659845320          0.6571
H576       H    0.7783275862    0.5666981650   -0.0652514073         -0.3124
C521       C    1.1530100079    0.5000000000    0.0000000000         -0.3162
C522       C    1.1702141949    0.4641039239    0.0048531412         -0.3118
C523       C    1.2091190060    0.4573384195   -0.0019512213         -0.3069
C524       C    1.2339465325    0.4879646802   -0.0100571103         -0.3103
C525       C    1.2172646724    0.5245269402   -0.0151042510         -0.3148
C526       C    1.1775118142    0.5295538241   -0.0108818734         -0.3168
C527       C    1.2794626702    0.4780453246   -0.0114999370         -0.3099
C528       C    1.2230084952    0.4132251202   -0.0023171503         -0.2952
O529       O    1.1513268659    0.4326435264    0.0191907342         -0.3142
H530       H    1.1648535127    0.5591324808   -0.0156017179          0.6801
C531       C    1.2410610712    0.5611628474   -0.0275272596         -0.3159
H532       H    1.2011173707    0.3940779223   -0.0171774330         -0.2747
H533       H    1.2502288924    0.4079331130   -0.0193070938         -0.2807
H534       H    1.2268842368    0.4017605531    0.0279800691          0.6805
O535       O    1.3077197125    0.5106228219   -0.0162264229         -0.3172
C536       C    1.3404033600    0.4602540975    0.0219307289          0.6601
C537       C    1.2955235471    0.4593511375    0.0277344480          0.6588
H538       H    1.2867473988    0.4285851072    0.0333590263          0.6632
H539       H    1.3488812330    0.4348315790    0.0032439401         -0.3166
H540       H    1.3565624573    0.4586482886    0.0502366814          0.6338
H541       H    1.2868463444    0.4774897858    0.0534525929          0.6313
H542       H    1.3554327762    0.5229852195    0.0216299880          0.6414
C543       C    1.3469899921    0.5000000000    0.0000000000           0.668
H544       H    1.2852146911    0.4577647221   -0.0364653814         -0.2822
H545       H    1.1752159492    0.4186449549    0.0284463650          0.6795
H546       H    1.2606433041    0.5544083475   -0.0527627812          -0.293
H547       H    1.2590594591    0.5722698895   -0.0027042106          0.6571
H548       H    1.2216724138    0.5854981655   -0.0373691726         -0.3124
C493       C    1.0000000000    0.5000000000   -0.3469899921         -0.3162
C494       C    1.0357547519    0.5058033590   -0.3297858051         -0.3118
C495       C    1.0402472274    0.5142821007   -0.2908809940         -0.3069
C496       C    1.0085875871    0.5131243186   -0.2660534675         -0.3103
C497       C    0.9721390280    0.5073126901   -0.2827353276         -0.3148
C498       C    0.9685585140    0.5018101495   -0.3224881858         -0.3168
C499       C    1.0176577157    0.5173914174   -0.2205373298         -0.3099
C500       C    1.0823446895    0.5274700029   -0.2769915048         -0.2952
O501       O    1.0700259700    0.5012419121   -0.3486731341         -0.3142
H502       H    0.9388865380    0.4977177528   -0.3351464873          0.6801
C503       C    0.9334734911    0.5085362489   -0.2589389288         -0.3159
H504       H    1.0963385183    0.5472592915   -0.2988826293         -0.2747
H505       H    1.0824632464    0.5452646500   -0.2497711076         -0.2807
H506       H    1.1021301074    0.5018205381   -0.2731157632          0.6805
O507       O    0.9851147644    0.5124326549   -0.1922802875         -0.3172
C508       C    1.0444078510    0.4905853091   -0.1595966400          0.6601
C509       C    1.0469607214    0.4852955695   -0.2044764529          0.6588
H510       H    1.0780319729    0.4888679401   -0.2132526012          0.6632
H511       H    1.0632918010    0.5158617201   -0.1511187670         -0.3166
H512       H    1.0541817282    0.4639718370   -0.1434375427          0.6338
H513       H    1.0370916343    0.4554118839   -0.2131536556          0.6313
H514       H    0.9843043831    0.4726170800   -0.1445672238          0.6414
C515       C    1.0000000000    0.5000000000   -0.1530100079           0.668
H516       H    1.0297950975    0.5471783309   -0.2147853089         -0.2822
H517       H    1.0861122099    0.4964607418   -0.3247840508          0.6795
H518       H    0.9325916196    0.5346451961   -0.2393566959          -0.293
H519       H    0.9300711731    0.4815552486   -0.2409405409          0.6571
H520       H    0.9073272881    0.5108701351   -0.2783275862         -0.3124
C465       C    1.0000000000    0.5000000000    0.3469899921         -0.3162
C466       C    1.0357547519    0.4941966410    0.3297858051         -0.3118
C467       C    1.0402472274    0.4857178993    0.2908809940         -0.3069
C468       C    1.0085875871    0.4868756814    0.2660534675         -0.3103
C469       C    0.9721390280    0.4926873099    0.2827353276         -0.3148
C470       C    0.9685585140    0.4981898505    0.3224881858         -0.3168
C471       C    1.0176577157    0.4826085826    0.2205373298         -0.3099
C472       C    1.0823446895    0.4725299971    0.2769915048         -0.2952
O473       O    1.0700259700    0.4987580879    0.3486731341         -0.3142
H474       H    0.9388865380    0.5022822472    0.3351464873          0.6801
C475       C    0.9334734911    0.4914637511    0.2589389288         -0.3159
H476       H    1.0963385183    0.4527407085    0.2988826293         -0.2747
H477       H    1.0824632464    0.4547353500    0.2497711076         -0.2807
H478       H    1.1021301074    0.4981794619    0.2731157632          0.6805
O479       O    0.9851147644    0.4875673451    0.1922802875         -0.3172
C480       C    1.0444078510    0.5094146909    0.1595966400          0.6601
C481       C    1.0469607214    0.5147044305    0.2044764529          0.6588
H482       H    1.0780319729    0.5111320599    0.2132526012          0.6632
H483       H    1.0632918010    0.4841382799    0.1511187670         -0.3166
H484       H    1.0541817282    0.5360281630    0.1434375427          0.6338
H485       H    1.0370916343    0.5445881161    0.2131536556          0.6313
H486       H    0.9843043831    0.5273829200    0.1445672238          0.6414
C487       C    1.0000000000    0.5000000000    0.1530100079           0.668
H488       H    1.0297950975    0.4528216691    0.2147853089         -0.2822
H489       H    1.0861122099    0.5035392582    0.3247840508          0.6795
H490       H    0.9325916196    0.4653548039    0.2393566959          -0.293
H491       H    0.9300711731    0.5184447514    0.2409405409          0.6571
H492       H    0.9073272881    0.4891298649    0.2783275862         -0.3124
C437       C    1.0000000000   -0.1530100079    0.5000000000         -0.3162
C438       C    1.0357547519   -0.1702141949    0.5058033590         -0.3118
C439       C    1.0402472274   -0.2091190060    0.5142821007         -0.3069
C440       C    1.0085875871   -0.2339465325    0.5131243186         -0.3103
C441       C    0.9721390280   -0.2172646724    0.5073126901         -0.3148
C442       C    0.9685585140   -0.1775118142    0.5018101495         -0.3168
C443       C    1.0176577157   -0.2794626702    0.5173914174         -0.3099
C444       C    1.0823446895   -0.2230084952    0.5274700029         -0.2952
O445       O    1.0700259700   -0.1513268659    0.5012419121         -0.3142
H446       H    0.9388865380   -0.1648535127    0.4977177528          0.6801
C447       C    0.9334734911   -0.2410610712    0.5085362489         -0.3159
H448       H    1.0963385183   -0.2011173707    0.5472592915         -0.2747
H449       H    1.0824632464   -0.2502288924    0.5452646500         -0.2807
H450       H    1.1021301074   -0.2268842368    0.5018205381          0.6805
O451       O    0.9851147644   -0.3077197125    0.5124326549         -0.3172
C452       C    1.0444078510   -0.3404033600    0.4905853091          0.6601
C453       C    1.0469607214   -0.2955235471    0.4852955695          0.6588
H454       H    1.0780319729   -0.2867473988    0.4888679401          0.6632
H455       H    1.0632918010   -0.3488812330    0.5158617201         -0.3166
H456       H    1.0541817282   -0.3565624573    0.4639718370          0.6338
H457       H    1.0370916343   -0.2868463444    0.4554118839          0.6313
H458       H    0.9843043831   -0.3554327762    0.4726170800          0.6414
C459       C    1.0000000000   -0.3469899921    0.5000000000           0.668
H460       H    1.0297950975   -0.2852146911    0.5471783309         -0.2822
H461       H    1.0861122099   -0.1752159492    0.4964607418          0.6795
H462       H    0.9325916196   -0.2606433041    0.5346451961          -0.293
H463       H    0.9300711731   -0.2590594591    0.4815552486          0.6571
H464       H    0.9073272881   -0.2216724138    0.5108701351         -0.3124
C409       C    1.0000000000    0.3469899921    0.5000000000         -0.3162
C410       C    1.0357547519    0.3297858051    0.5058033590         -0.3118
C411       C    1.0402472274    0.2908809940    0.5142821007         -0.3069
C412       C    1.0085875871    0.2660534675    0.5131243186         -0.3103
C413       C    0.9721390280    0.2827353276    0.5073126901         -0.3148
C414       C    0.9685585140    0.3224881858    0.5018101495         -0.3168
C415       C    1.0176577157    0.2205373298    0.5173914174         -0.3099
C416       C    1.0823446895    0.2769915048    0.5274700029         -0.2952
O417       O    1.0700259700    0.3486731341    0.5012419121         -0.3142
H418       H    0.9388865380    0.3351464873    0.4977177528          0.6801
C419       C    0.9334734911    0.2589389288    0.5085362489         -0.3159
H420       H    1.0963385183    0.2988826293    0.5472592915         -0.2747
H421       H    1.0824632464    0.2497711076    0.5452646500         -0.2775
H422       H    1.1021301074    0.2731157632    0.5018205381          0.6805
O423       O    0.9851147644    0.1922802875    0.5124326549         -0.3172
C424       C    1.0444078510    0.1595966400    0.4905853091          0.6601
C425       C    1.0469607214    0.2044764529    0.4852955695          0.6588
H426       H    1.0780319729    0.2132526012    0.4888679401          0.6632
H427       H    1.0632918010    0.1511187670    0.5158617201         -0.3166
H428       H    1.0541817282    0.1434375427    0.4639718370          0.6338
H429       H    1.0370916343    0.2131536556    0.4554118839          0.6313
H430       H    0.9843043831    0.1445672238    0.4726170800          0.6414
C431       C    1.0000000000    0.1530100079    0.5000000000           0.668
H432       H    1.0297950975    0.2147853089    0.5471783309         -0.2822
H433       H    1.0861122099    0.3247840508    0.4964607418          0.6795
H434       H    0.9325916196    0.2393566959    0.5346451961          -0.293
H435       H    0.9300711731    0.2409405409    0.4815552486          0.6571
H436       H    0.9073272881    0.2783275862    0.5108701351         -0.3124
C381       C    0.6530100079   -0.0000000000    0.5000000000         -0.3162
C382       C    0.6702141949    0.0305879134    0.4805974019         -0.3118
C383       C    0.7091190060    0.0395770563    0.4839539935         -0.3069
C384       C    0.7339465325    0.0151358741    0.5041109251         -0.3103
C385       C    0.7172646724   -0.0159763006    0.5239680416         -0.3148
C386       C    0.6775118142   -0.0223073001    0.5222312403         -0.3168
C387       C    0.7794626702    0.0247511839    0.5012787560         -0.3099
C388       C    0.7230084952    0.0798109918    0.4658612460         -0.2952
O389       O    0.6513268659    0.0531841315    0.4544299773         -0.3142
H390       H    0.6648535127   -0.0472109173    0.5388740681          0.6801
C391       C    0.7410610712   -0.0440746405    0.5505575908         -0.3159
H392       H    0.7011173707    0.1034148657    0.4713658194         -0.2747
H393       H    0.7502288924    0.0917156338    0.4790878487         -0.2807
H394       H    0.7268842368    0.0775730999    0.4335448469          0.6805
O395       O    0.8077197125   -0.0028743889    0.5191801730         -0.3172
C396       C    0.8404033600    0.0269528826    0.4634728080          0.6601
C397       C    0.7955235471    0.0253492114    0.4578224336          0.6588
H398       H    0.7867473988    0.0509537806    0.4398616280          0.6632
H399       H    0.8488812330    0.0578567311    0.4698330494         -0.3166
H400       H    0.8565624573    0.0165890904    0.4370834658          0.6338
H401       H    0.7868463444   -0.0018734084    0.4420312173          0.6313
H402       H    0.8554327762   -0.0299186469    0.4899475742          0.6414
C403       C    0.8469899921   -0.0000000000    0.5000000000           0.668
H404       H    0.7852146911    0.0536055835    0.5154914222         -0.2822
H405       H    0.6752159492    0.0620372656    0.4401734446          0.6795
H406       H    0.7606433041   -0.0273971756    0.5706652258          -0.293
H407       H    0.7590594591   -0.0645345192    0.5326426946          0.6571
H408       H    0.7216724138   -0.0620748060    0.5696642651         -0.3124
C353       C    1.3469899921   -0.0000000000    0.5000000000         -0.3162
C354       C    1.3297858051   -0.0103573805    0.4652896855         -0.3118
C355       C    1.2908809940   -0.0193438539    0.4619259533         -0.3069
C356       C    1.2660534675   -0.0141205211    0.4931731944         -0.3103
C357       C    1.2827353276   -0.0036656340    0.5285704799         -0.3148
C358       C    1.3224881858    0.0022520104    0.5314129294         -0.3168
C359       C    1.2205373298   -0.0195196162    0.4847277733         -0.3099
C360       C    1.2769915048   -0.0378407711    0.4218762201         -0.2952
O361       O    1.3486731341   -0.0102452201    0.4307164213         -0.3142
H362       H    1.3351464873    0.0101296959    0.5603113020          0.6801
C363       C    1.2589389288    0.0000979564    0.5670718594         -0.3159
H364       H    1.2988826293   -0.0592667009    0.4105460515         -0.2747
H365       H    1.2497711076   -0.0555026480    0.4240491500         -0.2807
H366       H    1.2731157632   -0.0149514296    0.3989538326          0.6805
O367       O    1.1922802875   -0.0104132243    0.5163617208         -0.3172
C368       C    1.1595966400    0.0036202588    0.4547497253          0.6601
C369       C    1.2044764529    0.0085373923    0.4515372044          0.6588
H370       H    1.2132526012    0.0009952942    0.4211842596          0.6632
H371       H    1.1511187670   -0.0238765961    0.4392764099         -0.3166
H372       H    1.1434375427    0.0287542590    0.4416315086          0.6338
H373       H    1.2131536556    0.0394428149    0.4574776084          0.6313
H374       H    1.1445672238    0.0291754427    0.5120403588          0.6414
C375       C    1.1530100079   -0.0000000000    0.5000000000           0.668
H376       H    1.2147853089   -0.0506210433    0.4765254878         -0.2822
H377       H    1.3247840508   -0.0075744204    0.4141485748          0.6795
H378       H    1.2393566959   -0.0256802817    0.5713070999          -0.293
H379       H    1.2409405409    0.0272924477    0.5669729197          0.6571
H380       H    1.2783275862    0.0011489860    0.5933009710         -0.3124
C325       C   -0.0000000000   -0.3469899921    0.0000000000         -0.3162
C326       C   -0.0241038560   -0.3297858051   -0.0270385907         -0.3118
C327       C   -0.0336686067   -0.2908809940   -0.0262724692         -0.3069
C328       C   -0.0156830334   -0.2660534675   -0.0001919700         -0.3103
C329       C    0.0088005437   -0.2827353276    0.0274273518         -0.3148
C330       C    0.0153651443   -0.3224881858    0.0274910172         -0.3168
C331       C   -0.0241549154   -0.2205373298   -0.0055494489         -0.3099
C332       C   -0.0674083741   -0.2769915048   -0.0546933273         -0.2952
O333       O   -0.0386687560   -0.3486731341   -0.0583944015         -0.3142
H334       H    0.0347579749   -0.3351464873    0.0503184565          0.6801
C335       C    0.0285415381   -0.2589389288    0.0606961657         -0.3159
H336       H   -0.0916172976   -0.2988826293   -0.0558643135         -0.2747
H337       H   -0.0824805092   -0.2497711076   -0.0452331865         -0.2807
H338       H   -0.0564046599   -0.2731157632   -0.0851609508          0.6805
O339       O   -0.0024889455   -0.1922802875    0.0192339881         -0.3172
C340       C   -0.0159174388   -0.1595966400   -0.0425126896          0.6601
C341       C   -0.0128274669   -0.2044764529   -0.0475077438          0.6588
H342       H   -0.0325334526   -0.2132526012   -0.0717947492          0.6632
H343       H   -0.0473815424   -0.1511187670   -0.0448601792         -0.3166
H344       H    0.0012780207   -0.1434375427   -0.0650542455          0.6338
H345       H    0.0176793096   -0.2131536556   -0.0552388581          0.6313
H346       H    0.0315278599   -0.1445672238   -0.0014733458          0.6414
C347       C   -0.0000000000   -0.1530100079    0.0000000000           0.668
H348       H   -0.0557987084   -0.2147853089    0.0002165396         -0.2822
H349       H   -0.0432784967   -0.3247840508   -0.0745306029          0.6795
H350       H    0.0069943969   -0.2393566959    0.0754669317          -0.293
H351       H    0.0531258615   -0.2409405409    0.0490702814          0.6571
H352       H    0.0406200710   -0.2783275862    0.0840023880         -0.3124
C297       C    0.0000000000    0.3469899921    0.0000000000         -0.3162
C298       C    0.0059735138    0.3297858051   -0.0357267182         -0.3118
C299       C    0.0144735472    0.2908809940   -0.0401787773         -0.3069
C300       C    0.0131650535    0.2660534675   -0.0085250078         -0.3103
C301       C    0.0071799671    0.2827353276    0.0278954704         -0.3148
C302       C    0.0016604428    0.3224881858    0.0314497475         -0.3168
C303       C    0.0174752849    0.2205373298   -0.0175747188         -0.3099
C304       C    0.0278617168    0.2769915048   -0.0822129775         -0.2952
O305       O    0.0015752766    0.3486731341   -0.0700192639         -0.3142
H306       H   -0.0025731693    0.3351464873    0.0611019041          0.6801
C307       C    0.0082194338    0.2589389288    0.0665663942         -0.3159
H308       H    0.0477174028    0.2988826293   -0.0961124353         -0.2747
H309       H    0.0456567267    0.2497711076   -0.0822468167         -0.2807
H310       H    0.0023067368    0.2731157632   -0.1021202828          0.6805
O311       O    0.0123616487    0.1922802875    0.0149442561         -0.3172
C312       C   -0.0092031680    0.1595966400   -0.0444521691          0.6601
C313       C   -0.0144806940    0.2044764529   -0.0470301938          0.6588
H314       H   -0.0107604404    0.2132526012   -0.0780840859          0.6632
H315       H    0.0161628589    0.1511187670   -0.0632155695         -0.3166
H316       H   -0.0357698072    0.1434375427   -0.0543526364          0.6338
H317       H   -0.0444110255    0.2131536556   -0.0373034884          0.6313
H318       H   -0.0274573331    0.1445672238    0.0155650749          0.6414
C319       C    0.0000000000    0.1530100079    0.0000000000           0.668
H320       H    0.0473196443    0.2147853089   -0.0295701540         -0.2822
H321       H   -0.0031292565    0.3247840508   -0.0861280837          0.6795
H322       H    0.0343238867    0.2393566959    0.0675725548          -0.293
H323       H   -0.0187774584    0.2409405409    0.0698402229          0.6571
H324       H    0.0104288171    0.2783275862    0.0927234120         -0.3124
C269       C   -0.3469899921   -0.0000000000    0.0000000000         -0.3162
C270       C   -0.3297858051   -0.0357711464    0.0057014338         -0.3118
C271       C   -0.2908809940   -0.0426958130   -0.0009408843         -0.3069
C272       C   -0.2660534675   -0.0122699975   -0.0097694192         -0.3103
C273       C   -0.2827353276    0.0241625542   -0.0156805666         -0.3148
C274       C   -0.3224881858    0.0292879724   -0.0115783572         -0.3168
C275       C   -0.2205373298   -0.0222207254   -0.0109770526         -0.3099
C276       C   -0.2769915048   -0.0868054146   -0.0002625586         -0.2952
O277       O   -0.3486731341   -0.0668833619    0.0207796707         -0.3142
H278       H   -0.3351464873    0.0587466244   -0.0169969998          0.6801
C279       C   -0.2589389288    0.0604941472   -0.0289672587         -0.3159
H280       H   -0.2988826293   -0.1062989878   -0.0146654678         -0.2747
H281       H   -0.2497711076   -0.0924980875   -0.0171224813         -0.2807
H282       H   -0.2731157632   -0.0975496411    0.0302975364          0.6805
O283       O   -0.1922802875    0.0102357698   -0.0164733167         -0.3172
C284       C   -0.1595966400   -0.0392156714    0.0228653615          0.6601
C285       C   -0.2044764529   -0.0399810056    0.0286888275          0.6588
H286       H   -0.2132526012   -0.0706052837    0.0350400552          0.6632
H287       H   -0.1511187670   -0.0650733795    0.0047855536         -0.3166
H288       H   -0.1434375427   -0.0401510346    0.0512013927          0.6338
H289       H   -0.2131536556   -0.0212386962    0.0539704291          0.6313
H290       H   -0.1445672238    0.0234907569    0.0210798728          0.6414
C291       C   -0.1530100079   -0.0000000000    0.0000000000           0.668
H292       H   -0.2147853089   -0.0430865726   -0.0354554651         -0.2822
H293       H   -0.3247840508   -0.0806589327    0.0303640515          0.6795
H294       H   -0.2393566959    0.0531442204   -0.0540358325          -0.293
H295       H   -0.2409405409    0.0721856336   -0.0044140656          0.6571
H296       H   -0.2783275862    0.0845896914   -0.0393824259         -0.3124
C241       C    0.1530100079   -0.0000000000    0.0000000000         -0.3162
C242       C    0.1702141949   -0.0011450638    0.0362045590         -0.3118
C243       C    0.2091190060   -0.0089738248    0.0417527027         -0.3069
C244       C    0.2339465325   -0.0119075819    0.0102080304         -0.3103
C245       C    0.2172646724   -0.0108437701   -0.0266856112         -0.3148
C246       C    0.1775118142   -0.0058487908   -0.0309456836         -0.3168
C247       C    0.2794626702   -0.0149696549    0.0197526138         -0.3099
C248       C    0.2230084952   -0.0166240329    0.0851991225         -0.2952
O249       O    0.1513268659    0.0077968985    0.0696016321         -0.3142
H250       H    0.1648535127   -0.0056161571   -0.0608976409          0.6801
C251       C    0.2410610712   -0.0170422627   -0.0648706806         -0.3159
H252       H    0.2011173707   -0.0344439305    0.1016275868         -0.2747
H253       H    0.2502288924   -0.0342548750    0.0876109530         -0.2807
H254       H    0.2268842368    0.0113622869    0.1015124211          0.6805
O255       O    0.3077197125   -0.0142480411   -0.0131580573         -0.3172
C256       C    0.3404033600    0.0150616154    0.0428233742          0.6601
C257       C    0.2955235471    0.0206363467    0.0446729317          0.6588
H258       H    0.2867473988    0.0210998073    0.0759454389          0.6632
H259       H    0.3488812330   -0.0075691244    0.0648085997         -0.3166
H260       H    0.3565624573    0.0427131090    0.0490844019          0.6338
H261       H    0.2868463444    0.0489981932    0.0310333127          0.6313
H262       H    0.3554327762    0.0251307388   -0.0190950953          0.6414
C263       C    0.3469899921   -0.0000000000    0.0000000000           0.668
H264       H    0.2852146911   -0.0429430860    0.0356291189         -0.2822
H265       H    0.1752159492    0.0146121620    0.0849371754          0.6795
H266       H    0.2606433041   -0.0430469965   -0.0623789664          -0.293
H267       H    0.2590594591    0.0092748854   -0.0717232611          0.6571
H268       H    0.2216724138   -0.0227276984   -0.0904977518         -0.3124
C213       C    0.0000000000    0.0000000000   -0.3469899921         -0.3162
C214       C   -0.0361454961    0.0023631284   -0.3297858051         -0.3118
C215       C   -0.0424250504   -0.0048921177   -0.2908809940         -0.3069
C216       C   -0.0113122089   -0.0108640839   -0.2660534675         -0.3103
C217       C    0.0255112758   -0.0133747524   -0.2827353276         -0.3148
C218       C    0.0302346309   -0.0088153719   -0.3224881858         -0.3168
C219       C   -0.0211082733   -0.0129883455   -0.2205373298         -0.3099
C220       C   -0.0864078110   -0.0083029597   -0.2769915048         -0.2952
O221       O   -0.0685207493    0.0144943344   -0.3486731341         -0.3142
H222       H    0.0600685801   -0.0114817056   -0.3351464873          0.6801
C223       C    0.0629174960   -0.0232386019   -0.2589389288         -0.3159
H224       H   -0.1044832929   -0.0244497905   -0.2988826293         -0.2747
H225       H   -0.0905141250   -0.0256177426   -0.2497711076         -0.2807
H226       H   -0.0999368790    0.0211303909   -0.2731157632          0.6805
O227       O    0.0117178186   -0.0154542510   -0.1922802875         -0.3172
C228       C   -0.0411652508    0.0191341518   -0.1595966400          0.6601
C229       C   -0.0424667715    0.0248616763   -0.2044764529          0.6588
H230       H   -0.0735477278    0.0283486029   -0.2132526012          0.6632
H231       H   -0.0652368779   -0.0012633306   -0.1511187670         -0.3166
H232       H   -0.0447216014    0.0472616818   -0.1434375427          0.6338
H233       H   -0.0261471094    0.0517708229   -0.2131536556          0.6313
H234       H    0.0214369325    0.0231653755   -0.1445672238          0.6414
C235       C    0.0000000000   -0.0000000000   -0.1530100079           0.668
H236       H   -0.0396167479   -0.0392944783   -0.2147853089         -0.2822
H237       H   -0.0831249658    0.0227613512   -0.3247840508          0.6795
H238       H    0.0579214924   -0.0488802627   -0.2393566959          -0.293
H239       H    0.0722841338    0.0022920902   -0.2409405409          0.6571
H240       H    0.0878742708   -0.0313768049   -0.2783275862         -0.3124
C185       C   -0.0000000000    0.0000000000    0.3469899921         -0.3162
C186       C    0.0159137721   -0.0325397160    0.3297858051         -0.3118
C187       C    0.0115870560   -0.0411042315    0.2908809940         -0.3069
C188       C   -0.0057538001   -0.0145906879    0.2660534675         -0.3103
C189       C   -0.0220615510    0.0185201826    0.2827353276         -0.3148
C190       C   -0.0196376770    0.0246212373    0.3224881858         -0.3168
C191       C   -0.0039984467   -0.0244595328    0.2205373298         -0.3099
C192       C    0.0251360027   -0.0830868841    0.2769915048         -0.2952
O193       O    0.0394318240   -0.0578818631    0.3486731341         -0.3142
H194       H   -0.0334348721    0.0512071597    0.3351464873          0.6801
C195       C   -0.0453928456    0.0493774593    0.2589389288         -0.3159
H196       H    0.0170639031   -0.1059404264    0.2988826293         -0.2747
H197       H    0.0106781089   -0.0934615083    0.2497711076         -0.2807
H198       H    0.0575021977   -0.0844237553    0.2731157632          0.6805
O199       O   -0.0187466178    0.0049704596    0.1922802875         -0.3172
C200       C    0.0333346407   -0.0308138827    0.1595966400          0.6601
C201       C    0.0391273217   -0.0298426260    0.2044764529          0.6588
H202       H    0.0541572260   -0.0572704673    0.2132526012          0.6632
H203       H    0.0236076571   -0.0608286508    0.1511187670         -0.3166
H204       H    0.0607053161   -0.0234212039    0.1434375427          0.6338
H205       H    0.0578221883   -0.0045259220    0.2131536556          0.6313
H206       H    0.0132881171    0.0286287031    0.1445672238          0.6414
C207       C   -0.0000000000    0.0000000000    0.1530100079           0.668
H208       H   -0.0213041922   -0.0515720286    0.2147853089         -0.2822
H209       H    0.0526259539   -0.0682520917    0.3247840508          0.6795
H210       H   -0.0672158108    0.0350173406    0.2393566959          -0.293
H211       H   -0.0253324587    0.0677385873    0.2409405409          0.6571
H212       H   -0.0623996140    0.0693734786    0.2783275862         -0.3124
loop_
_geom_bond_atom_site_label_1
_geom_bond_atom_site_label_2
_geom_bond_distance
_geom_bond_site_symmetry_2
_ccdc_geom_bond_type
Zn1          O5 1.942       .   S
Zn1          O6 1.922       .   S
Zn1         O10 1.922       .   S
Zn1         O17 1.922       .   S
Zn2          O5 1.942       .   S
Zn2          O7 1.922       .   S
Zn2          O9 1.922       .   S
Zn2         O13 1.922       .   S
Zn3          O5 1.942       .   S
Zn3          O8 1.922       .   S
Zn3         O11 1.922       .   S
Zn3         O14 1.922       .   S
Zn4          O5 1.942       .   S
Zn4         O12 1.922       .   S
Zn4         O15 1.922       .   S
Zn4         O16 1.922       .   S
O6          C18 1.304       .   A
O7          C19 1.304       .   A
O8          C20 1.304       .   A
O9          C18 1.304       .   A
O10         C20 1.304       .   A
O11         C19 1.304       .   A
O12         C21 1.304       .   A
O13         C22 1.304       .   A
O14         C21 1.304       .   A
O15         C22 1.304       .   A
O16         C23 1.304       .   A
O17         C23 1.304       .   A
C18        C207 1.540       .   S
C19        C241 1.540       .   S
C20        C347 1.540       .   S
C21        C235 1.540       .   S
C22        C319 1.540       .   S
C23        C291 1.540       .   S
Zn24        O28 1.942       .   S
Zn24        O29 1.922       .   S
Zn24        O33 1.922       .   S
Zn24        O40 1.922       .   S
Zn25        O28 1.942       .   S
Zn25        O30 1.922       .   S
Zn25        O32 1.922       .   S
Zn25        O36 1.922       .   S
Zn26        O28 1.942       .   S
Zn26        O31 1.922       .   S
Zn26        O34 1.922       .   S
Zn26        O37 1.922       .   S
Zn27        O28 1.942       .   S
Zn27        O35 1.922       .   S
Zn27        O38 1.922       .   S
Zn27        O39 1.922       .   S
O29         C41 1.304       .   A
O30         C42 1.304       .   A
O31         C43 1.304       .   A
O32         C41 1.304       .   A
O33         C43 1.304       .   A
O34         C42 1.304       .   A
O35         C44 1.304       .   A
O36         C45 1.304       .   A
O37         C44 1.304       .   A
O38         C45 1.304       .   A
O39         C46 1.304       .   A
O40         C46 1.304       .   A
C41        C431 1.540       .   S
C42        C185 1.540   1_655   S
C43        C375 1.540       .   S
C44        C437 1.540       .   S
C45        C403 1.540       .   S
C46        C213 1.540   1_656   S
Zn47        O51 1.942       .   S
Zn47        O52 1.922       .   S
Zn47        O56 1.922       .   S
Zn47        O63 1.922       .   S
Zn48        O51 1.942       .   S
Zn48        O53 1.922       .   S
Zn48        O55 1.922       .   S
Zn48        O59 1.922       .   S
Zn49        O51 1.942       .   S
Zn49        O54 1.922       .   S
Zn49        O57 1.922       .   S
Zn49        O60 1.922       .   S
Zn50        O51 1.942       .   S
Zn50        O58 1.922       .   S
Zn50        O61 1.922       .   S
Zn50        O62 1.922       .   S
O52         C64 1.304       .   A
O53         C65 1.304       .   A
O54         C66 1.304       .   A
O55         C64 1.304       .   A
O56         C66 1.304       .   A
O57         C65 1.304       .   A
O58         C67 1.304       .   A
O59         C68 1.304       .   A
O60         C67 1.304       .   A
O61         C68 1.304       .   A
O62         C69 1.304       .   A
O63         C69 1.304       .   A
C64        C297 1.540   1_655   S
C65        C487 1.540       .   S
C66        C521 1.540       .   S
C67        C325 1.540   1_665   S
C68        C549 1.540       .   S
C69        C515 1.540       .   S
Zn70        O74 1.942       .   S
Zn70        O75 1.922       .   S
Zn70        O79 1.922       .   S
Zn70        O86 1.922       .   S
Zn71        O74 1.942       .   S
Zn71        O76 1.922       .   S
Zn71        O78 1.922       .   S
Zn71        O82 1.922       .   S
Zn72        O74 1.942       .   S
Zn72        O77 1.922       .   S
Zn72        O80 1.922       .   S
Zn72        O83 1.922       .   S
Zn73        O74 1.942       .   S
Zn73        O81 1.922       .   S
Zn73        O84 1.922       .   S
Zn73        O85 1.922       .   S
O75         C87 1.304       .   A
O76         C88 1.304       .   A
O77         C89 1.304       .   A
O78         C87 1.304       .   A
O79         C89 1.304       .   A
O80         C88 1.304       .   A
O81         C90 1.304       .   A
O82         C91 1.304       .   A
O83         C90 1.304       .   A
O84         C91 1.304       .   A
O85         C92 1.304       .   A
O86         C92 1.304       .   A
C87        C409 1.540       .   S
C88        C465 1.540       .   S
C89        C605 1.540       .   S
C90        C459 1.540   1_565   S
C91        C577 1.540       .   S
C92        C493 1.540   1_556   S
Zn93        O97 1.942       .   S
Zn93        O98 1.922       .   S
Zn93       O102 1.922       .   S
Zn93       O109 1.922       .   S
Zn94        O97 1.942       .   S
Zn94        O99 1.922       .   S
Zn94       O101 1.922       .   S
Zn94       O105 1.922       .   S
Zn95        O97 1.942       .   S
Zn95       O100 1.922       .   S
Zn95       O103 1.922       .   S
Zn95       O106 1.922       .   S
Zn96        O97 1.942       .   S
Zn96       O104 1.922       .   S
Zn96       O107 1.922       .   S
Zn96       O108 1.922       .   S
O98        C110 1.304       .   A
O99        C111 1.304       .   A
O100       C112 1.304       .   A
O101       C110 1.304       .   A
O102       C112 1.304       .   A
O103       C111 1.304       .   A
O104       C113 1.304       .   A
O105       C114 1.304       .   A
O106       C113 1.304       .   A
O107       C114 1.304       .   A
O108       C115 1.304       .   A
O109       C115 1.304       .   A
C110       C263 1.540   1_565   S
C111       C655 1.540       .   S
C112       C739 1.540       .   S
C113       C269 1.540   1_665   S
C114       C711 1.540       .   S
C115       C683 1.540       .   S
Zn116      O120 1.942       .   S
Zn116      O121 1.922       .   S
Zn116      O125 1.922       .   S
Zn116      O132 1.922       .   S
Zn117      O120 1.942       .   S
Zn117      O122 1.922       .   S
Zn117      O124 1.922       .   S
Zn117      O128 1.922       .   S
Zn118      O120 1.942       .   S
Zn118      O123 1.922       .   S
Zn118      O126 1.922       .   S
Zn118      O129 1.922       .   S
Zn119      O120 1.942       .   S
Zn119      O127 1.922       .   S
Zn119      O130 1.922       .   S
Zn119      O131 1.922       .   S
O121       C133 1.304       .   A
O122       C134 1.304       .   A
O123       C135 1.304       .   A
O124       C133 1.304       .   A
O125       C135 1.304       .   A
O126       C134 1.304       .   A
O127       C136 1.304       .   A
O128       C137 1.304       .   A
O129       C136 1.304       .   A
O130       C137 1.304       .   A
O131       C138 1.304       .   A
O132       C138 1.304       .   A
C133       C353 1.540   1_465   S
C134       C633 1.540       .   S
C135       C745 1.540       .   S
C136       C381 1.540   1_565   S
C137       C773 1.540       .   S
C138       C661 1.540   1_556   S
Zn139      O143 1.942       .   S
Zn139      O144 1.922       .   S
Zn139      O148 1.922       .   S
Zn139      O155 1.922       .   S
Zn140      O143 1.942       .   S
Zn140      O145 1.922       .   S
Zn140      O147 1.922       .   S
Zn140      O151 1.922       .   S
Zn141      O143 1.942       .   S
Zn141      O146 1.922       .   S
Zn141      O149 1.922       .   S
Zn141      O152 1.922       .   S
Zn142      O143 1.942       .   S
Zn142      O150 1.922       .   S
Zn142      O153 1.922       .   S
Zn142      O154 1.922       .   S
O144       C156 1.304       .   A
O145       C157 1.304       .   A
O146       C158 1.304       .   A
O147       C156 1.304       .   A
O148       C158 1.304       .   A
O149       C157 1.304       .   A
O150       C159 1.304       .   A
O151       C160 1.304       .   A
O152       C159 1.304       .   A
O153       C160 1.304       .   A
O154       C161 1.304       .   A
O155       C161 1.304       .   A
C156       C543 1.540   1_455   S
C157       C689 1.540   1_545   S
C158       C851 1.540       .   S
C159       C571 1.540       .   S
C160       C823 1.540       .   S
C161       C717 1.540       .   S
Zn162      O166 1.942       .   S
Zn162      O167 1.922       .   S
Zn162      O171 1.922       .   S
Zn162      O178 1.922       .   S
Zn163      O166 1.942       .   S
Zn163      O168 1.922       .   S
Zn163      O170 1.922       .   S
Zn163      O174 1.922       .   S
Zn164      O166 1.942       .   S
Zn164      O169 1.922       .   S
Zn164      O172 1.922       .   S
Zn164      O175 1.922       .   S
Zn165      O166 1.942       .   S
Zn165      O173 1.922       .   S
Zn165      O176 1.922       .   S
Zn165      O177 1.922       .   S
O167       C179 1.304       .   A
O168       C180 1.304       .   A
O169       C181 1.304       .   A
O170       C179 1.304       .   A
O171       C181 1.304       .   A
O172       C180 1.304       .   A
O173       C182 1.304       .   A
O174       C183 1.304       .   A
O175       C182 1.304       .   A
O176       C183 1.304       .   A
O177       C184 1.304       .   A
O178       C184 1.304       .   A
C179       C599 1.540   1_455   S
C180       C767 1.540   1_545   S
C181       C801 1.540       .   S
C182       C627 1.540       .   S
C183       C829 1.540   1_556   S
C184       C795 1.540       .   S
C829       C830 0.038       .   A
C829       C834 0.038       .   A
C830       C831 0.038       .   A
C830       O837 0.037       .   A
C831       C832 0.038       .   A
C831       C836 0.044       .   A
C832       C833 0.038       .   A
C832       C835 0.044       .   A
C833       C834 0.038       .   A
C833       C839 0.043       .   A
C834       H838 0.031       .   A
C835       O843 0.041       .   A
C835       C845 0.044       .   A
C835       H852 0.031       .   A
C836       H840 0.031       .   A
C836       H841 0.031       .   A
C836       H842 0.031       .   A
O837       H853 0.028       .   A
C839       H854 0.031       .   A
C839       H855 0.031       .   A
C839       H856 0.031       .   A
O843       C851 0.041       .   A
C844       C845 0.043       .   A
C844       H847 0.031       .   A
C844       H848 0.031       .   A
C844       C851 0.043       .   A
C845       H846 0.031       .   A
C845       H849 0.031       .   A
H850       C851 0.031       .   A
C801       C802 0.038       .   A
C801       C806 0.038       .   A
C802       C803 0.038       .   A
C802       O809 0.037       .   A
C803       C804 0.038       .   A
C803       C808 0.044       .   A
C804       C805 0.038       .   A
C804       C807 0.044       .   A
C805       C806 0.038       .   A
C805       C811 0.043       .   A
C806       H810 0.031       .   A
C807       O815 0.041       .   A
C807       C817 0.044       .   A
C807       H824 0.031       .   A
C808       H812 0.031       .   A
C808       H813 0.031       .   A
C808       H814 0.031       .   A
O809       H825 0.028       .   A
C811       H826 0.031       .   A
C811       H827 0.031       .   A
C811       H828 0.031       .   A
O815       C823 0.041       .   A
C816       C817 0.043       .   A
C816       H819 0.031       .   A
C816       H820 0.031       .   A
C816       C823 0.043       .   A
C817       H818 0.031       .   A
C817       H821 0.031       .   A
H822       C823 0.031       .   A
C773       C774 0.038       .   A
C773       C778 0.038       .   A
C774       C775 0.038       .   A
C774       O781 0.037       .   A
C775       C776 0.038       .   A
C775       C780 0.044       .   A
C776       C777 0.038       .   A
C776       C779 0.044       .   A
C777       C778 0.038       .   A
C777       C783 0.043       .   A
C778       H782 0.031       .   A
C779       O787 0.041       .   A
C779       C789 0.044       .   A
C779       H796 0.031       .   A
C780       H784 0.031       .   A
C780       H785 0.031       .   A
C780       H786 0.031       .   A
O781       H797 0.028       .   A
C783       H798 0.031       .   A
C783       H799 0.031       .   A
C783       H800 0.031       .   A
O787       C795 0.041       .   A
C788       C789 0.043       .   A
C788       H791 0.031       .   A
C788       H792 0.031       .   A
C788       C795 0.043       .   A
C789       H790 0.031       .   A
C789       H793 0.031       .   A
H794       C795 0.031       .   A
C745       C746 0.038       .   A
C745       C750 0.038       .   A
C746       C747 0.038       .   A
C746       O753 0.037       .   A
C747       C748 0.038       .   A
C747       C752 0.044       .   A
C748       C749 0.038       .   A
C748       C751 0.044       .   A
C749       C750 0.038       .   A
C749       C755 0.043       .   A
C750       H754 0.031       .   A
C751       O759 0.041       .   A
C751       C761 0.044       .   A
C751       H768 0.031       .   A
C752       H756 0.031       .   A
C752       H757 0.031       .   A
C752       H758 0.031       .   A
O753       H769 0.028       .   A
C755       H770 0.031       .   A
C755       H771 0.031       .   A
C755       H772 0.031       .   A
O759       C767 0.041       .   A
C760       C761 0.043       .   A
C760       H763 0.031       .   A
C760       H764 0.031       .   A
C760       C767 0.043       .   A
C761       H762 0.031       .   A
C761       H765 0.031       .   A
H766       C767 0.031       .   A
C717       C718 0.038       .   A
C717       C722 0.038       .   A
C718       C719 0.038       .   A
C718       O725 0.037       .   A
C719       C720 0.038       .   A
C719       C724 0.044       .   A
C720       C721 0.038       .   A
C720       C723 0.044       .   A
C721       C722 0.038       .   A
C721       C727 0.043       .   A
C722       H726 0.031       .   A
C723       O731 0.041       .   A
C723       C733 0.044       .   A
C723       H740 0.031       .   A
C724       H728 0.031       .   A
C724       H729 0.031       .   A
C724       H730 0.031       .   A
O725       H741 0.028       .   A
C727       H742 0.031       .   A
C727       H743 0.031       .   A
C727       H744 0.031       .   A
O731       C739 0.041       .   A
C732       C733 0.043       .   A
C732       H735 0.031       .   A
C732       H736 0.031       .   A
C732       C739 0.043       .   A
C733       H734 0.031       .   A
C733       H737 0.031       .   A
H738       C739 0.031       .   A
C689       C690 0.038       .   A
C689       C694 0.038       .   A
C690       C691 0.038       .   A
C690       O697 0.037       .   A
C691       C692 0.038       .   A
C691       C696 0.044       .   A
C692       C693 0.038       .   A
C692       C695 0.044       .   A
C693       C694 0.038       .   A
C693       C699 0.043       .   A
C694       H698 0.031       .   A
C695       O703 0.041       .   A
C695       C705 0.044       .   A
C695       H712 0.031       .   A
C696       H700 0.031       .   A
C696       H701 0.031       .   A
C696       H702 0.031       .   A
O697       H713 0.028       .   A
C699       H714 0.031       .   A
C699       H715 0.031       .   A
C699       H716 0.031       .   A
O703       C711 0.041       .   A
C704       C705 0.043       .   A
C704       H707 0.031       .   A
C704       H708 0.031       .   A
C704       C711 0.043       .   A
C705       H706 0.031       .   A
C705       H709 0.031       .   A
H710       C711 0.031       .   A
C661       C662 0.038       .   A
C661       C666 0.038       .   A
C662       C663 0.038       .   A
C662       O669 0.037       .   A
C663       C664 0.038       .   A
C663       C668 0.044       .   A
C664       C665 0.038       .   A
C664       C667 0.044       .   A
C665       C666 0.038       .   A
C665       C671 0.043       .   A
C666       H670 0.031       .   A
C667       O675 0.041       .   A
C667       C677 0.044       .   A
C667       H684 0.031       .   A
C668       H672 0.031       .   A
C668       H673 0.031       .   A
C668       H674 0.031       .   A
O669       H685 0.028       .   A
C671       H686 0.031       .   A
C671       H687 0.031       .   A
C671       H688 0.031       .   A
O675       C683 0.041       .   A
C676       C677 0.043       .   A
C676       H679 0.031       .   A
C676       H680 0.031       .   A
C676       C683 0.043       .   A
C677       H678 0.031       .   A
C677       H681 0.031       .   A
H682       C683 0.031       .   A
C633       C634 0.038       .   A
C633       C638 0.038       .   A
C634       C635 0.038       .   A
C634       O641 0.037       .   A
C635       C636 0.038       .   A
C635       C640 0.044       .   A
C636       C637 0.038       .   A
C636       C639 0.044       .   A
C637       C638 0.038       .   A
C637       C643 0.043       .   A
C638       H642 0.031       .   A
C639       O647 0.041       .   A
C639       C649 0.044       .   A
C639       H656 0.031       .   A
C640       H644 0.031       .   A
C640       H645 0.031       .   A
C640       H646 0.031       .   A
O641       H657 0.028       .   A
C643       H658 0.031       .   A
C643       H659 0.031       .   A
C643       H660 0.031       .   A
O647       C655 0.041       .   A
C648       C649 0.043       .   A
C648       H651 0.031       .   A
C648       H652 0.031       .   A
C648       C655 0.043       .   A
C649       H650 0.031       .   A
C649       H653 0.031       .   A
H654       C655 0.031       .   A
C605       C606 0.038       .   A
C605       C610 0.038       .   A
C606       C607 0.038       .   A
C606       O613 0.037       .   A
C607       C608 0.038       .   A
C607       C612 0.044       .   A
C608       C609 0.038       .   A
C608       C611 0.044       .   A
C609       C610 0.038       .   A
C609       C615 0.043       .   A
C610       H614 0.031       .   A
C611       O619 0.041       .   A
C611       C621 0.044       .   A
C611       H628 0.031       .   A
C612       H616 0.031       .   A
C612       H617 0.031       .   A
C612       H618 0.031       .   A
O613       H629 0.028       .   A
C615       H630 0.031       .   A
C615       H631 0.031       .   A
C615       H632 0.031       .   A
O619       C627 0.041       .   A
C620       C621 0.043       .   A
C620       H623 0.031       .   A
C620       H624 0.031       .   A
C620       C627 0.043       .   A
C621       H622 0.031       .   A
C621       H625 0.031       .   A
H626       C627 0.031       .   A
C577       C578 0.038       .   A
C577       C582 0.038       .   A
C578       C579 0.038       .   A
C578       O585 0.037       .   A
C579       C580 0.038       .   A
C579       C584 0.044       .   A
C580       C581 0.038       .   A
C580       C583 0.044       .   A
C581       C582 0.038       .   A
C581       C587 0.043       .   A
C582       H586 0.031       .   A
C583       O591 0.041       .   A
C583       C593 0.044       .   A
C583       H600 0.031       .   A
C584       H588 0.031       .   A
C584       H589 0.031       .   A
C584       H590 0.031       .   A
O585       H601 0.028       .   A
C587       H602 0.031       .   A
C587       H603 0.031       .   A
C587       H604 0.031       .   A
O591       C599 0.041       .   A
C592       C593 0.043       .   A
C592       H595 0.031       .   A
C592       H596 0.031       .   A
C592       C599 0.043       .   A
C593       H594 0.031       .   A
C593       H597 0.031       .   A
H598       C599 0.031       .   A
C549       C550 0.038       .   A
C549       C554 0.038       .   A
C550       C551 0.038       .   A
C550       O557 0.037       .   A
C551       C552 0.038       .   A
C551       C556 0.044       .   A
C552       C553 0.038       .   A
C552       C555 0.044       .   A
C553       C554 0.038       .   A
C553       C559 0.043       .   A
C554       H558 0.031       .   A
C555       O563 0.041       .   A
C555       C565 0.044       .   A
C555       H572 0.031       .   A
C556       H560 0.031       .   A
C556       H561 0.031       .   A
C556       H562 0.031       .   A
O557       H573 0.028       .   A
C559       H574 0.031       .   A
C559       H575 0.031       .   A
C559       H576 0.031       .   A
O563       C571 0.041       .   A
C564       C565 0.043       .   A
C564       H567 0.031       .   A
C564       H568 0.031       .   A
C564       C571 0.043       .   A
C565       H566 0.031       .   A
C565       H569 0.031       .   A
H570       C571 0.031       .   A
C521       C522 0.038       .   A
C521       C526 0.038       .   A
C522       C523 0.038       .   A
C522       O529 0.037       .   A
C523       C524 0.038       .   A
C523       C528 0.044       .   A
C524       C525 0.038       .   A
C524       C527 0.044       .   A
C525       C526 0.038       .   A
C525       C531 0.043       .   A
C526       H530 0.031       .   A
C527       O535 0.041       .   A
C527       C537 0.044       .   A
C527       H544 0.031       .   A
C528       H532 0.031       .   A
C528       H533 0.031       .   A
C528       H534 0.031       .   A
O529       H545 0.028       .   A
C531       H546 0.031       .   A
C531       H547 0.031       .   A
C531       H548 0.031       .   A
O535       C543 0.041       .   A
C536       C537 0.043       .   A
C536       H539 0.031       .   A
C536       H540 0.031       .   A
C536       C543 0.043       .   A
C537       H538 0.031       .   A
C537       H541 0.031       .   A
H542       C543 0.031       .   A
C493       C494 0.038       .   A
C493       C498 0.038       .   A
C494       C495 0.038       .   A
C494       O501 0.037       .   A
C495       C496 0.038       .   A
C495       C500 0.044       .   A
C496       C497 0.038       .   A
C496       C499 0.044       .   A
C497       C498 0.038       .   A
C497       C503 0.043       .   A
C498       H502 0.031       .   A
C499       O507 0.041       .   A
C499       C509 0.044       .   A
C499       H516 0.031       .   A
C500       H504 0.031       .   A
C500       H505 0.031       .   A
C500       H506 0.031       .   A
O501       H517 0.028       .   A
C503       H518 0.031       .   A
C503       H519 0.031       .   A
C503       H520 0.031       .   A
O507       C515 0.041       .   A
C508       C509 0.043       .   A
C508       H511 0.031       .   A
C508       H512 0.031       .   A
C508       C515 0.043       .   A
C509       H510 0.031       .   A
C509       H513 0.031       .   A
H514       C515 0.031       .   A
C465       C466 0.038       .   A
C465       C470 0.038       .   A
C466       C467 0.038       .   A
C466       O473 0.037       .   A
C467       C468 0.038       .   A
C467       C472 0.044       .   A
C468       C469 0.038       .   A
C468       C471 0.044       .   A
C469       C470 0.038       .   A
C469       C475 0.043       .   A
C470       H474 0.031       .   A
C471       O479 0.041       .   A
C471       C481 0.044       .   A
C471       H488 0.031       .   A
C472       H476 0.031       .   A
C472       H477 0.031       .   A
C472       H478 0.031       .   A
O473       H489 0.028       .   A
C475       H490 0.031       .   A
C475       H491 0.031       .   A
C475       H492 0.031       .   A
O479       C487 0.041       .   A
C480       C481 0.043       .   A
C480       H483 0.031       .   A
C480       H484 0.031       .   A
C480       C487 0.043       .   A
C481       H482 0.031       .   A
C481       H485 0.031       .   A
H486       C487 0.031       .   A
C437       C438 0.038       .   A
C437       C442 0.038       .   A
C438       C439 0.038       .   A
C438       O445 0.037       .   A
C439       C440 0.038       .   A
C439       C444 0.044       .   A
C440       C441 0.038       .   A
C440       C443 0.044       .   A
C441       C442 0.038       .   A
C441       C447 0.043       .   A
C442       H446 0.031       .   A
C443       O451 0.041       .   A
C443       C453 0.044       .   A
C443       H460 0.031       .   A
C444       H448 0.031       .   A
C444       H449 0.031       .   A
C444       H450 0.031       .   A
O445       H461 0.028       .   A
C447       H462 0.031       .   A
C447       H463 0.031       .   A
C447       H464 0.031       .   A
O451       C459 0.041       .   A
C452       C453 0.043       .   A
C452       H455 0.031       .   A
C452       H456 0.031       .   A
C452       C459 0.043       .   A
C453       H454 0.031       .   A
C453       H457 0.031       .   A
H458       C459 0.031       .   A
C409       C410 0.038       .   A
C409       C414 0.038       .   A
C410       C411 0.038       .   A
C410       O417 0.037       .   A
C411       C412 0.038       .   A
C411       C416 0.044       .   A
C412       C413 0.038       .   A
C412       C415 0.044       .   A
C413       C414 0.038       .   A
C413       C419 0.043       .   A
C414       H418 0.031       .   A
C415       O423 0.041       .   A
C415       C425 0.044       .   A
C415       H432 0.031       .   A
C416       H420 0.031       .   A
C416       H421 0.031       .   A
C416       H422 0.031       .   A
O417       H433 0.028       .   A
C419       H434 0.031       .   A
C419       H435 0.031       .   A
C419       H436 0.031       .   A
O423       C431 0.041       .   A
C424       C425 0.043       .   A
C424       H427 0.031       .   A
C424       H428 0.031       .   A
C424       C431 0.043       .   A
C425       H426 0.031       .   A
C425       H429 0.031       .   A
H430       C431 0.031       .   A
C381       C382 0.038       .   A
C381       C386 0.038       .   A
C382       C383 0.038       .   A
C382       O389 0.037       .   A
C383       C384 0.038       .   A
C383       C388 0.044       .   A
C384       C385 0.038       .   A
C384       C387 0.044       .   A
C385       C386 0.038       .   A
C385       C391 0.043       .   A
C386       H390 0.031       .   A
C387       O395 0.041       .   A
C387       C397 0.044       .   A
C387       H404 0.031       .   A
C388       H392 0.031       .   A
C388       H393 0.031       .   A
C388       H394 0.031       .   A
O389       H405 0.028       .   A
C391       H406 0.031       .   A
C391       H407 0.031       .   A
C391       H408 0.031       .   A
O395       C403 0.041       .   A
C396       C397 0.043       .   A
C396       H399 0.031       .   A
C396       H400 0.031       .   A
C396       C403 0.043       .   A
C397       H398 0.031       .   A
C397       H401 0.031       .   A
H402       C403 0.031       .   A
C353       C354 0.038       .   A
C353       C358 0.038       .   A
C354       C355 0.038       .   A
C354       O361 0.037       .   A
C355       C356 0.038       .   A
C355       C360 0.044       .   A
C356       C357 0.038       .   A
C356       C359 0.044       .   A
C357       C358 0.038       .   A
C357       C363 0.043       .   A
C358       H362 0.031       .   A
C359       O367 0.041       .   A
C359       C369 0.044       .   A
C359       H376 0.031       .   A
C360       H364 0.031       .   A
C360       H365 0.031       .   A
C360       H366 0.031       .   A
O361       H377 0.028       .   A
C363       H378 0.031       .   A
C363       H379 0.031       .   A
C363       H380 0.031       .   A
O367       C375 0.041       .   A
C368       C369 0.043       .   A
C368       H371 0.031       .   A
C368       H372 0.031       .   A
C368       C375 0.043       .   A
C369       H370 0.031       .   A
C369       H373 0.031       .   A
H374       C375 0.031       .   A
C325       C326 0.038       .   A
C325       C330 0.038       .   A
C326       C327 0.038       .   A
C326       O333 0.037       .   A
C327       C328 0.038       .   A
C327       C332 0.044       .   A
C328       C329 0.038       .   A
C328       C331 0.044       .   A
C329       C330 0.038       .   A
C329       C335 0.043       .   A
C330       H334 0.031       .   A
C331       O339 0.041       .   A
C331       C341 0.044       .   A
C331       H348 0.031       .   A
C332       H336 0.031       .   A
C332       H337 0.031       .   A
C332       H338 0.031       .   A
O333       H349 0.028       .   A
C335       H350 0.031       .   A
C335       H351 0.031       .   A
C335       H352 0.031       .   A
O339       C347 0.041       .   A
C340       C341 0.043       .   A
C340       H343 0.031       .   A
C340       H344 0.031       .   A
C340       C347 0.043       .   A
C341       H342 0.031       .   A
C341       H345 0.031       .   A
H346       C347 0.031       .   A
C297       C298 0.038       .   A
C297       C302 0.038       .   A
C298       C299 0.038       .   A
C298       O305 0.037       .   A
C299       C300 0.038       .   A
C299       C304 0.044       .   A
C300       C301 0.038       .   A
C300       C303 0.044       .   A
C301       C302 0.038       .   A
C301       C307 0.043       .   A
C302       H306 0.031       .   A
C303       O311 0.041       .   A
C303       C313 0.044       .   A
C303       H320 0.031       .   A
C304       H308 0.031       .   A
C304       H309 0.031       .   A
C304       H310 0.031       .   A
O305       H321 0.028       .   A
C307       H322 0.031       .   A
C307       H323 0.031       .   A
C307       H324 0.031       .   A
O311       C319 0.041       .   A
C312       C313 0.043       .   A
C312       H315 0.031       .   A
C312       H316 0.031       .   A
C312       C319 0.043       .   A
C313       H314 0.031       .   A
C313       H317 0.031       .   A
H318       C319 0.031       .   A
C269       C270 0.038       .   A
C269       C274 0.038       .   A
C270       C271 0.038       .   A
C270       O277 0.037       .   A
C271       C272 0.038       .   A
C271       C276 0.044       .   A
C272       C273 0.038       .   A
C272       C275 0.044       .   A
C273       C274 0.038       .   A
C273       C279 0.043       .   A
C274       H278 0.031       .   A
C275       O283 0.041       .   A
C275       C285 0.044       .   A
C275       H292 0.031       .   A
C276       H280 0.031       .   A
C276       H281 0.031       .   A
C276       H282 0.031       .   A
O277       H293 0.028       .   A
C279       H294 0.031       .   A
C279       H295 0.031       .   A
C279       H296 0.031       .   A
O283       C291 0.041       .   A
C284       C285 0.043       .   A
C284       H287 0.031       .   A
C284       H288 0.031       .   A
C284       C291 0.043       .   A
C285       H286 0.031       .   A
C285       H289 0.031       .   A
H290       C291 0.031       .   A
C241       C242 0.038       .   A
C241       C246 0.038       .   A
C242       C243 0.038       .   A
C242       O249 0.037       .   A
C243       C244 0.038       .   A
C243       C248 0.044       .   A
C244       C245 0.038       .   A
C244       C247 0.044       .   A
C245       C246 0.038       .   A
C245       C251 0.043       .   A
C246       H250 0.031       .   A
C247       O255 0.041       .   A
C247       C257 0.044       .   A
C247       H264 0.031       .   A
C248       H252 0.031       .   A
C248       H253 0.031       .   A
C248       H254 0.031       .   A
O249       H265 0.028       .   A
C251       H266 0.031       .   A
C251       H267 0.031       .   A
C251       H268 0.031       .   A
O255       C263 0.041       .   A
C256       C257 0.043       .   A
C256       H259 0.031       .   A
C256       H260 0.031       .   A
C256       C263 0.043       .   A
C257       H258 0.031       .   A
C257       H261 0.031       .   A
H262       C263 0.031       .   A
C213       C214 0.038       .   A
C213       C218 0.038       .   A
C214       C215 0.038       .   A
C214       O221 0.037       .   A
C215       C216 0.038       .   A
C215       C220 0.044       .   A
C216       C217 0.038       .   A
C216       C219 0.044       .   A
C217       C218 0.038       .   A
C217       C223 0.043       .   A
C218       H222 0.031       .   A
C219       O227 0.041       .   A
C219       C229 0.044       .   A
C219       H236 0.031       .   A
C220       H224 0.031       .   A
C220       H225 0.031       .   A
C220       H226 0.031       .   A
O221       H237 0.028       .   A
C223       H238 0.031       .   A
C223       H239 0.031       .   A
C223       H240 0.031       .   A
O227       C235 0.041       .   A
C228       C229 0.043       .   A
C228       H231 0.031       .   A
C228       H232 0.031       .   A
C228       C235 0.043       .   A
C229       H230 0.031       .   A
C229       H233 0.031       .   A
H234       C235 0.031       .   A
C185       C186 0.038       .   A
C185       C190 0.038       .   A
C186       C187 0.038       .   A
C186       O193 0.037       .   A
C187       C188 0.038       .   A
C187       C192 0.044       .   A
C188       C189 0.038       .   A
C188       C191 0.044       .   A
C189       C190 0.038       .   A
C189       C195 0.043       .   A
C190       H194 0.031       .   A
C191       O199 0.041       .   A
C191       C201 0.044       .   A
C191       H208 0.031       .   A
C192       H196 0.031       .   A
C192       H197 0.031       .   A
C192       H198 0.031       .   A
O193       H209 0.028       .   A
C195       H210 0.031       .   A
C195       H211 0.031       .   A
C195       H212 0.031       .   A
O199       C207 0.041       .   A
C200       C201 0.043       .   A
C200       H203 0.031       .   A
C200       H204 0.031       .   A
C200       C207 0.043       .   A
C201       H202 0.031       .   A
C201       H205 0.031       .   A
H206       C207 0.031       .   A
