data_pcu_v1-6c_Zn_1_Ch_1-90_fer_tobacco
_audit_creation_date              2021-04-07
_audit_creation_method            'tobacco_3.0'
_symmetry_space_group_name_H-M    'P1'
_symmetry_Int_Tables_number       1
_symmetry_cell_setting            triclinic
loop_
_symmetry_equiv_pos_as_xyz
  x,y,z
_cell_length_a                    38.67754595389741
_cell_length_b                    38.67754595389741
_cell_length_c                    38.67754595389741
_cell_angle_alpha                 90.0
_cell_angle_beta                  90.0
_cell_angle_gamma                 90.0
loop_
_atom_site_label
_atom_site_type_symbol
_atom_site_fract_x
_atom_site_fract_y
_atom_site_fract_z
_atom_site_charge
Zn1       Zn   -0.0289883955   -0.0289883955    0.0289883955          1.4972
Zn2       Zn    0.0289883955    0.0289883955    0.0289883955          1.4936
Zn3       Zn    0.0289883955   -0.0289883955   -0.0289883955          1.4911
Zn4       Zn   -0.0289883955    0.0289883955   -0.0289883955          1.4948
O5         O    0.0000000000    0.0000000000    0.0000000000         -2.2518
O6         O   -0.0213043506   -0.0213043506    0.0774764770         -1.1581
O7         O    0.0774764770    0.0213043506    0.0213043506         -1.1563
O8         O    0.0213043506   -0.0774764770   -0.0213043506         -1.1515
O9         O    0.0213043506    0.0213043506    0.0774764770         -1.1582
O10        O   -0.0213043506   -0.0774764770    0.0213043506         -1.1542
O11        O    0.0774764770   -0.0213043506   -0.0213043506         -1.1601
O12        O   -0.0213043506    0.0213043506   -0.0774764770          -1.154
O13        O    0.0213043506    0.0774764770    0.0213043506         -1.1615
O14        O    0.0213043506   -0.0213043506   -0.0774764770         -1.1554
O15        O   -0.0213043506    0.0774764770   -0.0213043506         -1.1601
O16        O   -0.0774764770    0.0213043506   -0.0213043506         -1.1592
O17        O   -0.0774764770   -0.0213043506    0.0213043506         -1.1571
C18        C   -0.0000000000   -0.0000000000    0.0926325575          0.3608
C19        C    0.0926325575   -0.0000000000   -0.0000000000          0.3657
C20        C   -0.0000000000   -0.0926325575    0.0000000000          0.3553
C21        C    0.0000000000    0.0000000000   -0.0926325575          0.3591
C22        C    0.0000000000    0.0926325575   -0.0000000000          0.3704
C23        C   -0.0926325575    0.0000000000    0.0000000000          0.3609
Zn24      Zn    0.9710116045    0.0289883955    0.4710116045          1.4972
Zn25      Zn    1.0289883955   -0.0289883955    0.4710116045          1.4936
Zn26      Zn    1.0289883955    0.0289883955    0.5289883955          1.4911
Zn27      Zn    0.9710116045   -0.0289883955    0.5289883955          1.4948
O28        O    1.0000000000    0.0000000000    0.5000000000         -2.2518
O29        O    0.9786956494    0.0213043506    0.4225235230         -1.1581
O30        O    1.0774764770   -0.0213043506    0.4786956494         -1.1563
O31        O    1.0213043506    0.0774764770    0.5213043506         -1.1515
O32        O    1.0213043506   -0.0213043506    0.4225235230         -1.1582
O33        O    0.9786956494    0.0774764770    0.4786956494         -1.1542
O34        O    1.0774764770    0.0213043506    0.5213043506         -1.1601
O35        O    0.9786956494   -0.0213043506    0.5774764770          -1.154
O36        O    1.0213043506   -0.0774764770    0.4786956494         -1.1615
O37        O    1.0213043506    0.0213043506    0.5774764770         -1.1554
O38        O    0.9786956494   -0.0774764770    0.5213043506         -1.1601
O39        O    0.9225235230   -0.0213043506    0.5213043506         -1.1592
O40        O    0.9225235230    0.0213043506    0.4786956494         -1.1571
C41        C    1.0000000000    0.0000000000    0.4073674425          0.3608
C42        C    1.0926325575    0.0000000000    0.5000000000          0.3657
C43        C    1.0000000000    0.0926325575    0.5000000000          0.3553
C44        C    1.0000000000    0.0000000000    0.5926325575          0.3591
C45        C    1.0000000000   -0.0926325575    0.5000000000          0.3704
C46        C    0.9073674425    0.0000000000    0.5000000000          0.3609
Zn47      Zn    1.0289883955    0.4710116045    0.0289883955          1.4972
Zn48      Zn    0.9710116045    0.4710116045   -0.0289883955          1.4936
Zn49      Zn    0.9710116045    0.5289883955    0.0289883955          1.4911
Zn50      Zn    1.0289883955    0.5289883955   -0.0289883955          1.4948
O51        O    1.0000000000    0.5000000000    0.0000000000         -2.2518
O52        O    1.0213043506    0.4225235230    0.0213043506         -1.1581
O53        O    0.9225235230    0.4786956494   -0.0213043506         -1.1563
O54        O    0.9786956494    0.5213043506    0.0774764770         -1.1515
O55        O    0.9786956494    0.4225235230   -0.0213043506         -1.1582
O56        O    1.0213043506    0.4786956494    0.0774764770         -1.1542
O57        O    0.9225235230    0.5213043506    0.0213043506         -1.1601
O58        O    1.0213043506    0.5774764770   -0.0213043506          -1.154
O59        O    0.9786956494    0.4786956494   -0.0774764770         -1.1615
O60        O    0.9786956494    0.5774764770    0.0213043506         -1.1554
O61        O    1.0213043506    0.5213043506   -0.0774764770         -1.1601
O62        O    1.0774764770    0.5213043506   -0.0213043506         -1.1592
O63        O    1.0774764770    0.4786956494    0.0213043506         -1.1571
C64        C    1.0000000000    0.4073674425    0.0000000000          0.3608
C65        C    0.9073674425    0.5000000000    0.0000000000          0.3657
C66        C    1.0000000000    0.5000000000    0.0926325575          0.3553
C67        C    1.0000000000    0.5926325575    0.0000000000          0.3591
C68        C    1.0000000000    0.5000000000   -0.0926325575          0.3704
C69        C    1.0926325575    0.5000000000    0.0000000000          0.3609
Zn70      Zn    0.9710116045    0.4710116045    0.5289883955          1.4972
Zn71      Zn    1.0289883955    0.4710116045    0.4710116045          1.4936
Zn72      Zn    0.9710116045    0.5289883955    0.4710116045          1.4911
Zn73      Zn    1.0289883955    0.5289883955    0.5289883955          1.4948
O74        O    1.0000000000    0.5000000000    0.5000000000         -2.2518
O75        O    0.9786956494    0.4225235230    0.5213043506         -1.1581
O76        O    1.0213043506    0.4786956494    0.4225235230         -1.1563
O77        O    0.9225235230    0.5213043506    0.4786956494         -1.1515
O78        O    1.0213043506    0.4225235230    0.4786956494         -1.1582
O79        O    0.9225235230    0.4786956494    0.5213043506         -1.1542
O80        O    0.9786956494    0.5213043506    0.4225235230         -1.1601
O81        O    1.0213043506    0.5774764770    0.5213043506          -1.154
O82        O    1.0774764770    0.4786956494    0.4786956494         -1.1615
O83        O    0.9786956494    0.5774764770    0.4786956494         -1.1554
O84        O    1.0774764770    0.5213043506    0.5213043506         -1.1601
O85        O    1.0213043506    0.5213043506    0.5774764770         -1.1592
O86        O    0.9786956494    0.4786956494    0.5774764770         -1.1571
C87        C    1.0000000000    0.4073674425    0.5000000000          0.3608
C88        C    1.0000000000    0.5000000000    0.4073674425          0.3657
C89        C    0.9073674425    0.5000000000    0.5000000000          0.3553
C90        C    1.0000000000    0.5926325575    0.5000000000          0.3591
C91        C    1.0926325575    0.5000000000    0.5000000000          0.3704
C92        C    1.0000000000    0.5000000000    0.5926325575          0.3609
Zn93      Zn    0.4710116045    1.0289883955   -0.0289883955          1.4972
Zn94      Zn    0.4710116045    0.9710116045    0.0289883955          1.4936
Zn95      Zn    0.5289883955    0.9710116045   -0.0289883955          1.4911
Zn96      Zn    0.5289883955    1.0289883955    0.0289883955          1.4948
O97        O    0.5000000000    1.0000000000    0.0000000000         -2.2518
O98        O    0.4225235230    1.0213043506   -0.0213043506         -1.1581
O99        O    0.4786956494    0.9225235230    0.0213043506         -1.1563
O100       O    0.5213043506    0.9786956494   -0.0774764770         -1.1515
O101       O    0.4225235230    0.9786956494    0.0213043506         -1.1582
O102       O    0.4786956494    1.0213043506   -0.0774764770 -1.1525999999999998
O103       O    0.5213043506    0.9225235230   -0.0213043506         -1.1601
O104       O    0.5774764770    1.0213043506    0.0213043506          -1.154
O105       O    0.4786956494    0.9786956494    0.0774764770         -1.1615
O106       O    0.5774764770    0.9786956494   -0.0213043506         -1.1554
O107       O    0.5213043506    1.0213043506    0.0774764770         -1.1601
O108       O    0.5213043506    1.0774764770    0.0213043506         -1.1592
O109       O    0.4786956494    1.0774764770   -0.0213043506         -1.1571
C110       C    0.4073674425    1.0000000000    0.0000000000          0.3608
C111       C    0.5000000000    0.9073674425    0.0000000000          0.3657
C112       C    0.5000000000    1.0000000000   -0.0926325575          0.3553
C113       C    0.5926325575    1.0000000000    0.0000000000          0.3591
C114       C    0.5000000000    1.0000000000    0.0926325575          0.3704
C115       C    0.5000000000    1.0926325575    0.0000000000          0.3609
Zn116     Zn    0.4710116045    0.9710116045    0.4710116045          1.4972
Zn117     Zn    0.4710116045    1.0289883955    0.5289883955          1.4936
Zn118     Zn    0.5289883955    0.9710116045    0.5289883955          1.4911
Zn119     Zn    0.5289883955    1.0289883955    0.4710116045          1.4948
O120       O    0.5000000000    1.0000000000    0.5000000000         -2.2518
O121       O    0.4225235230    0.9786956494    0.4786956494         -1.1581
O122       O    0.4786956494    1.0213043506    0.5774764770         -1.1563
O123       O    0.5213043506    0.9225235230    0.5213043506         -1.1515
O124       O    0.4225235230    1.0213043506    0.5213043506         -1.1582
O125       O    0.4786956494    0.9225235230    0.4786956494         -1.1542
O126       O    0.5213043506    0.9786956494    0.5774764770         -1.1601
O127       O    0.5774764770    1.0213043506    0.4786956494          -1.154
O128       O    0.4786956494    1.0774764770    0.5213043506         -1.1615
O129       O    0.5774764770    0.9786956494    0.5213043506         -1.1554
O130       O    0.5213043506    1.0774764770    0.4786956494         -1.1601
O131       O    0.5213043506    1.0213043506    0.4225235230         -1.1592
O132       O    0.4786956494    0.9786956494    0.4225235230         -1.1571
C133       C    0.4073674425    1.0000000000    0.5000000000          0.3608
C134       C    0.5000000000    1.0000000000    0.5926325575          0.3657
C135       C    0.5000000000    0.9073674425    0.5000000000          0.3553
C136       C    0.5926325575    1.0000000000    0.5000000000          0.3591
C137       C    0.5000000000    1.0926325575    0.5000000000          0.3704
C138       C    0.5000000000    1.0000000000    0.4073674425          0.3609
Zn139     Zn    0.4710116045    0.5289883955    0.0289883955          1.4972
Zn140     Zn    0.5289883955    0.5289883955   -0.0289883955          1.4936
Zn141     Zn    0.5289883955    0.4710116045    0.0289883955          1.4911
Zn142     Zn    0.4710116045    0.4710116045   -0.0289883955          1.4948
O143       O    0.5000000000    0.5000000000    0.0000000000         -2.2518
O144       O    0.4786956494    0.5774764770    0.0213043506         -1.1581
O145       O    0.5774764770    0.5213043506   -0.0213043506         -1.1563
O146       O    0.5213043506    0.4786956494    0.0774764770         -1.1515
O147       O    0.5213043506    0.5774764770   -0.0213043506         -1.1582
O148       O    0.4786956494    0.5213043506    0.0774764770         -1.1542
O149       O    0.5774764770    0.4786956494    0.0213043506         -1.1601
O150       O    0.4786956494    0.4225235230   -0.0213043506          -1.154
O151       O    0.5213043506    0.5213043506   -0.0774764770         -1.1615
O152       O    0.5213043506    0.4225235230    0.0213043506         -1.1554
O153       O    0.4786956494    0.4786956494   -0.0774764770         -1.1601
O154       O    0.4225235230    0.4786956494   -0.0213043506         -1.1592
O155       O    0.4225235230    0.5213043506    0.0213043506         -1.1571
C156       C    0.5000000000    0.5926325575    0.0000000000          0.3608
C157       C    0.5926325575    0.5000000000    0.0000000000          0.3657
C158       C    0.5000000000    0.5000000000    0.0926325575          0.3553
C159       C    0.5000000000    0.4073674425    0.0000000000          0.3591
C160       C    0.5000000000    0.5000000000   -0.0926325575          0.3704
C161       C    0.4073674425    0.5000000000    0.0000000000          0.3609
Zn162     Zn    0.4710116045    0.5289883955    0.4710116045          1.4972
Zn163     Zn    0.4710116045    0.4710116045    0.5289883955          1.4936
Zn164     Zn    0.5289883955    0.4710116045    0.4710116045          1.4911
Zn165     Zn    0.5289883955    0.5289883955    0.5289883955          1.4948
O166       O    0.5000000000    0.5000000000    0.5000000000         -2.2518
O167       O    0.4225235230    0.5213043506    0.4786956494         -1.1581
O168       O    0.4786956494    0.4225235230    0.5213043506         -1.1563
O169       O    0.5213043506    0.4786956494    0.4225235230         -1.1515
O170       O    0.4225235230    0.4786956494    0.5213043506         -1.1582
O171       O    0.4786956494    0.5213043506    0.4225235230         -1.1542
O172       O    0.5213043506    0.4225235230    0.4786956494         -1.1601
O173       O    0.5774764770    0.5213043506    0.5213043506          -1.154
O174       O    0.4786956494    0.4786956494    0.5774764770         -1.1615
O175       O    0.5774764770    0.4786956494    0.4786956494         -1.1554
O176       O    0.5213043506    0.5213043506    0.5774764770         -1.1601
O177       O    0.5213043506    0.5774764770    0.5213043506         -1.1592
O178       O    0.4786956494    0.5774764770    0.4786956494         -1.1571
C179       C    0.4073674425    0.5000000000    0.5000000000          0.3608
C180       C    0.5000000000    0.4073674425    0.5000000000          0.3657
C181       C    0.5000000000    0.5000000000    0.4073674425          0.3553
C182       C    0.5926325575    0.5000000000    0.5000000000          0.3591
C183       C    0.5000000000    0.5000000000    0.5926325575          0.3704
C184       C    0.5000000000    0.5926325575    0.5000000000          0.3609
C760       C    0.5000000000    0.5000000000   -0.1324489409         -0.4044
C761       C    0.5227662011    0.4773707222   -0.1469632463         -0.3865
C762       C    0.5287776247    0.4751614292   -0.1820978861         -0.3868
C763       C    0.5116071741    0.4941828632   -0.2067383138         -0.4042
C764       C    0.4899840838    0.5171736533   -0.1920664683          0.5776
C765       C    0.4860788153    0.5196301307   -0.1573678415          0.5778
N766       N    0.5183607005    0.4914251077   -0.2410141698          -0.404
C767       C    0.5504049412    0.4566622891   -0.1878815811         -0.3718
H768       H    0.5382245799    0.4614240944   -0.1293697003         -0.3721
O769       O    0.4776599900    0.5473368521   -0.1424983065          0.5558
H770       H    0.4776693285    0.5366486208   -0.2080324269          0.5605
N771       N    0.4985773265    0.5067523686   -0.2637564401          0.5818
C772       C    0.5116544860    0.5107323149   -0.3020052769          0.5762
C773       C    0.4829728713    0.5116662331   -0.3316856460          0.5733
C774       C    0.5000000000    0.5000000000   -0.3675510591          0.5808
N775       N    0.5368777213    0.5031835947   -0.3580405931          0.5791
N776       N    0.5386707322    0.4918069869   -0.3215463639         -0.4092
H777       H    0.5630095910    0.4973724401   -0.3131116833         -0.4131
H778       H    0.5433787929    0.5286988099   -0.3572453074          0.5582
H779       H    0.4616609182    0.4943008988   -0.3252975212         -0.4122
H780       H    0.4946421454    0.4724616845   -0.3708820597         -0.3968
H781       H    0.4725278948    0.5378307178   -0.3336663389          0.5516
H782       H    0.5223119807    0.5371478522   -0.3015300196          0.5546
H783       H    0.4969120530    0.5363608630   -0.1278994884          0.5659
N784       N    0.5795000844    0.4536296123   -0.1924811042         -0.3693
C735       C    0.5000000000    0.5000000000    0.1324489409         -0.4044
C736       C    0.5227662011    0.5226292778    0.1469632463         -0.3865
C737       C    0.5287776247    0.5248385708    0.1820978861         -0.3868
C738       C    0.5116071741    0.5058171368    0.2067383138         -0.4042
C739       C    0.4899840838    0.4828263467    0.1920664683          0.5776
C740       C    0.4860788153    0.4803698693    0.1573678415          0.5778
N741       N    0.5183607005    0.5085748923    0.2410141698          -0.404
C742       C    0.5504049412    0.5433377109    0.1878815811         -0.3718
H743       H    0.5382245799    0.5385759056    0.1293697003         -0.3721
O744       O    0.4776599900    0.4526631479    0.1424983065          0.5558
H745       H    0.4776693285    0.4633513792    0.2080324269          0.5605
N746       N    0.4985773265    0.4932476314    0.2637564401          0.5818
C747       C    0.5116544860    0.4892676851    0.3020052769          0.5762
C748       C    0.4829728713    0.4883337669    0.3316856460          0.5733
C749       C    0.5000000000    0.5000000000    0.3675510591          0.5808
N750       N    0.5368777213    0.4968164053    0.3580405931          0.5791
N751       N    0.5386707322    0.5081930131    0.3215463639         -0.4092
H752       H    0.5630095910    0.5026275599    0.3131116833         -0.4131
H753       H    0.5433787929    0.4713011901    0.3572453074          0.5582
H754       H    0.4616609182    0.5056991012    0.3252975212         -0.4122
H755       H    0.4946421454    0.5275383155    0.3708820597         -0.3968
H756       H    0.4725278948    0.4621692822    0.3336663389          0.5516
H757       H    0.5223119807    0.4628521478    0.3015300196          0.5546
H758       H    0.4969120530    0.4636391370    0.1278994884          0.5659
N759       N    0.5795000844    0.5463703877    0.1924811042         -0.3693
C710       C    0.5000000000    0.6324489409    0.5000000000         -0.4044
C711       C    0.4976556278    0.6469632463    0.5320138727         -0.3865
C712       C    0.4945666605    0.6820978861    0.5376242622         -0.3868
C713       C    0.4950530983    0.7067383138    0.5120039050         -0.4042
C714       C    0.4962974516    0.6920664683    0.4804668466          0.5776
C715       C    0.4976343933    0.6573678415    0.4760511938          0.5778
N716       N    0.4917636394    0.7410141698    0.5185150335          -0.404
C717       C    0.4903732447    0.6878815811    0.5657734055         -0.3718
H718       H    0.4964449825    0.6293697003    0.5541902283         -0.3721
O719       O    0.4858180544    0.6424983065    0.4496142279          0.5558
H720       H    0.4928209373    0.7080324269    0.4576887562          0.5605
N721       N    0.4966453811    0.7637564401    0.4939696589          0.5818
C722       C    0.4841633388    0.8020052769    0.4995419738          0.5762
C723       C    0.5052021930    0.8316856460    0.4800259845          0.5733
C724       C    0.5000000000    0.8675510591    0.5000000000          0.5808
N725       N    0.4700735216    0.8580405931    0.5217831930          0.5791
N726       N    0.4761814092    0.8215463639    0.5315471984         -0.4092
H727       H    0.4541581970    0.8131116833    0.5433086796         -0.4131
H728       H    0.4484316619    0.8572453074    0.5067858583          0.5582
H729       H    0.5326794481    0.8252975212    0.4791572885         -0.4122
H730       H    0.5221057213    0.8708820597    0.5172743310         -0.3968
H731       H    0.4959268527    0.8336663389    0.4534243707          0.5516
H732       H    0.4587933696    0.8015300196    0.4865910098          0.5546
H733       H    0.4784835881    0.6278994884    0.4705264222          0.5659
N734       N    0.4703987052    0.6924811042    0.5871449346         -0.3693
C685       C    0.5000000000    1.1324489409    0.5000000000         -0.4044
C686       C    0.4772337989    1.1469632463    0.5226292778         -0.3865
C687       C    0.4712223753    1.1820978861    0.5248385708         -0.3868
C688       C    0.4883928259    1.2067383138    0.5058171368         -0.4042
C689       C    0.5100159162    1.1920664683    0.4828263467          0.5776
C690       C    0.5139211847    1.1573678415    0.4803698693          0.5778
N691       N    0.4816392995    1.2410141698    0.5085748923          -0.404
C692       C    0.4495950588    1.1878815811    0.5433377109         -0.3718
H693       H    0.4617754201    1.1293697003    0.5385759056         -0.3721
O694       O    0.5223400100    1.1424983065    0.4526631479          0.5558
H695       H    0.5223306715    1.2080324269    0.4633513792          0.5605
N696       N    0.5014226735    1.2637564401    0.4932476314          0.5818
C697       C    0.4883455140    1.3020052769    0.4892676851          0.5762
C698       C    0.5170271287    1.3316856460    0.4883337669          0.5733
C699       C    0.5000000000    1.3675510591    0.5000000000          0.5808
N700       N    0.4631222787    1.3580405931    0.4968164053          0.5791
N701       N    0.4613292678    1.3215463639    0.5081930131         -0.4092
H702       H    0.4369904090    1.3131116833    0.5026275599         -0.4131
H703       H    0.4566212071    1.3572453074    0.4713011901          0.5582
H704       H    0.5383390818    1.3252975212    0.5056991012         -0.4122
H705       H    0.5053578546    1.3708820597    0.5275383155         -0.3968
H706       H    0.5274721052    1.3336663389    0.4621692822          0.5516
H707       H    0.4776880193    1.3015300196    0.4628521478          0.5546
H708       H    0.5030879470    1.1278994884    0.4636391370          0.5659
N709       N    0.4204999156    1.1924811042    0.5463703877         -0.3693
C660       C    0.5000000000    0.6324489409    0.0000000000         -0.4044
C661       C    0.4697702776    0.6469632463   -0.0107957404         -0.3865
C662       C    0.4651866573    0.6820978861   -0.0152688394         -0.3868
C663       C    0.4897497409    0.7067383138   -0.0079685481         -0.4042
C664       C    0.5198132230    0.6920664683    0.0016398601          0.5776
C665       C    0.5237125250    0.6573678415    0.0041057975          0.5778
N666       N    0.4843514518    0.7410141698   -0.0128750549          -0.404
C667       C    0.4391747771    0.6878815811   -0.0268161805         -0.3718
H668       H    0.4487196119    0.6293697003   -0.0178757040         -0.3721
O669       O    0.5523430900    0.6424983065   -0.0002335314          0.5558
H670       H    0.5426936319    0.7080324269    0.0043628077          0.5605
N671       N    0.5067064989    0.7637564401   -0.0016252245          0.5818
C672       C    0.5046641635    0.8020052769   -0.0151411758          0.5762
C673       C    0.5178637454    0.8316856460    0.0103397634          0.5733
C674       C    0.5000000000    0.8675510591    0.0000000000          0.5808
N675       N    0.4869851114    0.8580405931   -0.0346513243          0.5791
N676       N    0.4759459860    0.8215463639   -0.0313680634         -0.4092
H677       H    0.4704826363    0.8131116833   -0.0557300446         -0.4131
H678       H    0.5072101070    0.8572453074   -0.0515107341          0.5582
H679       H    0.5113743992    0.8252975212    0.0370538526         -0.4122
H680       H    0.4774567604    0.8708820597    0.0166993345         -0.3968
H681       H    0.5459754603    0.8336663389    0.0084933399          0.5516
H682       H    0.5239109467    0.8015300196   -0.0361393696          0.5546
H683       H    0.5341436858    0.6278994884   -0.0128785285          0.5659
N684       N    0.4239030429    0.6924811042   -0.0517661028         -0.3693
C635       C    0.5000000000    1.1324489409    0.0000000000         -0.4044
C636       C    0.4725038537    1.1469632463   -0.0165633954         -0.3865
C637       C    0.4688958651    1.1820978861   -0.0218549554         -0.3868
C638       C    0.4915289819    1.2067383138   -0.0098390763         -0.4042
C639       C    0.5190970926    1.1920664683    0.0055275673          0.5776
C640       C    0.5224314158    1.1573678415    0.0087162492          0.5778
N641       N    0.4872081806    1.2410141698   -0.0157166618          -0.404
C642       C    0.4456828877    1.1878815811   -0.0383205767         -0.3718
H643       H    0.4532701268    1.1293697003   -0.0276683565         -0.3721
O644       O    0.5513545512    1.1424983065    0.0101273731          0.5558
H645       H    0.5409864443    1.2080324269    0.0127236660          0.5605
N646       N    0.5068954786    1.2637564401   -0.0002661889          0.5818
C647       C    0.5075677017    1.3020052769   -0.0139190344          0.5762
C648       C    0.5154648429    1.3316856460    0.0136697747          0.5733
C649       C    0.5000000000    1.3675510591    0.0000000000          0.5808
N650       N    0.4940982981    1.3580405931   -0.0365413672          0.5791
N651       N    0.4826277934    1.3215463639   -0.0355071461         -0.4092
H652       H    0.4820925605    1.3131116833   -0.0604684731         -0.4131
H653       H    0.5172591771    1.3572453074   -0.0490658963          0.5582
H654       H    0.5038182927    1.3252975212    0.0385718238         -0.4122
H655       H    0.4745983767    1.3708820597    0.0119089444         -0.3968
H656       H    0.5433861538    1.3336663389    0.0174218665          0.5516
H657       H    0.5305885809    1.3015300196   -0.0306940731          0.5546
H658       H    0.5360167845    1.1278994884   -0.0058684757          0.5659
N659       N    0.4356494938    1.1924811042   -0.0657988498         -0.3693
C610       C    0.5000000000    1.0000000000   -0.1324489409         -0.4044
C611       C    0.4768848925    0.9777272379   -0.1469632463         -0.3865
C612       C    0.4745464397    0.9717648703   -0.1820978861         -0.3868
C613       C    0.4939338356    0.9885210096   -0.2067383138         -0.4042
C614       C    0.5173857130    1.0096431286   -0.1920664683          0.5776
C615       C    0.5199258603    1.0134944991   -0.1573678415          0.5778
N616       N    0.4910310399    0.9818285429   -0.2410141698          -0.404
C617       C    0.4555850760    0.9505416356   -0.1878815811         -0.3718
H618       H    0.4606085188    0.9626164447   -0.1293697003         -0.3721
O619       O    0.5478077392    1.0213136970   -0.1424983065          0.5558
H620       H    0.5371217935    1.0215349192   -0.2080324269          0.5605
N621       N    0.5067814863    1.0012766855   -0.2637564401          0.5818
C622       C    0.5104784159    0.9881167165   -0.3020052769          0.5762
C623       C    0.5120308148    1.0167715116   -0.3316856460          0.5733
C624       C    0.5000000000    1.0000000000   -0.3675510591          0.5808
N625       N    0.5023873556    0.9630621855   -0.3580405931          0.5791
N626       N    0.4909747176    0.9615149994   -0.3215463639         -0.4092
H627       H    0.4960138563    0.9370617502   -0.3131116833         -0.4131
H628       H    0.5277563976    0.9560122317   -0.3572453074          0.5582
H629       H    0.4951292466    1.0384530976   -0.3252975212         -0.4122
H630       H    0.4725836679    1.0059506436   -0.3708820597         -0.3968
H631       H    0.5384145226    1.0266496572   -0.3336663389          0.5516
H632       H    0.5366579113    0.9768918856   -0.3015300196          0.5546
H633       H    0.5364190131    1.0023028795   -0.1278994884          0.5659
N634       N    0.4519254864    0.9215186811   -0.1924811042         -0.3693
C585       C    0.5000000000    1.0000000000    0.1324489409         -0.4044
C586       C    0.5227662011    1.0226292778    0.1469632463         -0.3865
C587       C    0.5287776247    1.0248385708    0.1820978861         -0.3868
C588       C    0.5116071741    1.0058171368    0.2067383138         -0.4042
C589       C    0.4899840838    0.9828263467    0.1920664683          0.5776
C590       C    0.4860788153    0.9803698693    0.1573678415          0.5778
N591       N    0.5183607005    1.0085748923    0.2410141698          -0.404
C592       C    0.5504049412    1.0433377109    0.1878815811         -0.3718
H593       H    0.5382245799    1.0385759056    0.1293697003         -0.3721
O594       O    0.4776599900    0.9526631479    0.1424983065          0.5558
H595       H    0.4776693285    0.9633513792    0.2080324269          0.5605
N596       N    0.4985773265    0.9932476314    0.2637564401          0.5818
C597       C    0.5116544860    0.9892676851    0.3020052769          0.5762
C598       C    0.4829728713    0.9883337669    0.3316856460          0.5733
C599       C    0.5000000000    1.0000000000    0.3675510591          0.5808
N600       N    0.5368777213    0.9968164053    0.3580405931          0.5791
N601       N    0.5386707322    1.0081930131    0.3215463639         -0.4092
H602       H    0.5630095910    1.0026275599    0.3131116833         -0.4131
H603       H    0.5433787929    0.9713011901    0.3572453074          0.5582
H604       H    0.4616609182    1.0056991012    0.3252975212         -0.4122
H605       H    0.4946421454    1.0275383155    0.3708820597         -0.3968
H606       H    0.4725278948    0.9621692822    0.3336663389          0.5516
H607       H    0.5223119807    0.9628521478    0.3015300196          0.5546
H608       H    0.4969120530    0.9636391370    0.1278994884          0.5659
N609       N    0.5795000844    1.0463703877    0.1924811042         -0.3693
C560       C    0.6324489409    0.5000000000    0.5000000000         -0.4044
C561       C    0.6469632463    0.5209582846    0.5243132563         -0.3865
C562       C    0.6820978861    0.5267819786    0.5269783599         -0.3868
C563       C    0.7067383138    0.5111253799    0.5066926447         -0.4042
C564       C    0.6920664683    0.4913346249    0.4821068666          0.5776
C565       C    0.6573678415    0.4876298588    0.4793573010          0.5778
N566       N    0.7410141698    0.5176467948    0.5099616633          -0.404
C567       C    0.6878815811    0.5469224123    0.5470861180         -0.3718
H568       H    0.6293697003    0.5351443746    0.5414015933         -0.3721
O569       O    0.6424983065    0.4813669707    0.4510851369          0.5558
H570       H    0.7080324269    0.4805542206    0.4617424261          0.5605
N571       N    0.7637564401    0.4991008837    0.4931582114          0.5818
C572       C    0.8020052769    0.5124454149    0.4901958542          0.5762
C573       C    0.8316856460    0.4839205902    0.4870587216          0.5733
C574       C    0.8675510591    0.5000000000    0.5000000000          0.5808
N575       N    0.8580405931    0.5370133421    0.4996622013          0.5791
N576       N    0.8215463639    0.5379260360    0.5111430149         -0.4092
H577       H    0.8131116833    0.5626208532    0.5074660152         -0.4131
H578       H    0.8572453074    0.5454576009    0.4747225815          0.5582
H579       H    0.8252975212    0.4613361517    0.5027334567         -0.4122
H580       H    0.8708820597    0.4925399697    0.5270446551         -0.3968
H581       H    0.8336663389    0.4755189350    0.4601683890          0.5516
H582       H    0.8015300196    0.5251030310    0.4646782610          0.5546
H583       H    0.6278994884    0.4997178127    0.4635093417          0.5659
N584       N    0.6924811042    0.5756981193    0.5523475979         -0.3693
C535       C    1.1324489409    0.5000000000    0.5000000000         -0.4044
C536       C    1.1469632463    0.5209582846    0.5243132563         -0.3865
C537       C    1.1820978861    0.5267819786    0.5269783599         -0.3868
C538       C    1.2067383138    0.5111253799    0.5066926447         -0.4042
C539       C    1.1920664683    0.4913346249    0.4821068666          0.5776
C540       C    1.1573678415    0.4876298588    0.4793573010          0.5778
N541       N    1.2410141698    0.5176467948    0.5099616633          -0.404
C542       C    1.1878815811    0.5469224123    0.5470861180         -0.3718
H543       H    1.1293697003    0.5351443746    0.5414015933         -0.3721
O544       O    1.1424983065    0.4813669707    0.4510851369          0.5558
H545       H    1.2080324269    0.4805542206    0.4617424261          0.5605
N546       N    1.2637564401    0.4991008837    0.4931582114          0.5818
C547       C    1.3020052769    0.5124454149    0.4901958542          0.5762
C548       C    1.3316856460    0.4839205902    0.4870587216          0.5733
C549       C    1.3675510591    0.5000000000    0.5000000000          0.5808
N550       N    1.3580405931    0.5370133421    0.4996622013          0.5791
N551       N    1.3215463639    0.5379260360    0.5111430149         -0.4092
H552       H    1.3131116833    0.5626208532    0.5074660152         -0.4131
H553       H    1.3572453074    0.5454576009    0.4747225815          0.5582
H554       H    1.3252975212    0.4613361517    0.5027334567         -0.4122
H555       H    1.3708820597    0.4925399697    0.5270446551         -0.3968
H556       H    1.3336663389    0.4755189350    0.4601683890          0.5516
H557       H    1.3015300196    0.5251030310    0.4646782610          0.5546
H558       H    1.1278994884    0.4997178127    0.4635093417          0.5659
N559       N    1.1924811042    0.5756981193    0.5523475979         -0.3693
C510       C    0.8675510591    0.5000000000    0.0000000000         -0.4044
C511       C    0.8530367537    0.5290922595   -0.0135655655         -0.3865
C512       C    0.8179021139    0.5354966834   -0.0136048428         -0.3868
C513       C    0.7932616862    0.5128921979   -0.0015351883         -0.4042
C514       C    0.8079335317    0.4847526586    0.0127581945          0.5776
C515       C    0.8426321585    0.4802456856    0.0137443980          0.5778
N516       N    0.7589858302    0.5201807655   -0.0018386962          -0.404
C517       C    0.8121184189    0.5621166563   -0.0236714235         -0.3718
H518       H    0.8706302997    0.5490432142   -0.0233234246         -0.3721
O519       O    0.8575016935    0.4629279970    0.0369529458          0.5558
H520       H    0.7919675731    0.4665621690    0.0269015196          0.5605
N521       N    0.7362435599    0.4963713028    0.0058695007          0.5818
C522       C    0.6979947231    0.5073232252    0.0140491992          0.5762
C523       C    0.6683143540    0.4800251821    0.0051991109          0.5733
C524       C    0.6324489409    0.5000000000    0.0000000000          0.5808
N525       N    0.6419594069    0.5336116176    0.0155035726          0.5791
N526       N    0.6784536361    0.5391572128    0.0054095909         -0.4092
H527       H    0.6868883167    0.5601654049    0.0189007060         -0.4131
H528       H    0.6427546926    0.5310726662    0.0417112789          0.5582
H529       H    0.6747024788    0.4658669021   -0.0183656359         -0.4122
H530       H    0.6291179403    0.5043006185   -0.0277230970         -0.3968
H531       H    0.6663336611    0.4613245778    0.0262695925          0.5516
H532       H    0.6984699804    0.5083889048    0.0425136882          0.5546
H533       H    0.8721005116    0.4847617201    0.0331578437          0.5659
N534       N    0.8075188958    0.5905155995   -0.0166554052         -0.3693
C485       C    1.1324489409    0.5000000000    0.0000000000         -0.4044
C486       C    1.1469632463    0.5306866433   -0.0094188135         -0.3865
C487       C    1.1820978861    0.5354676949   -0.0136802375         -0.3868
C488       C    1.2067383138    0.5105998415   -0.0074972615         -0.4042
C489       C    1.1920664683    0.4801329171    0.0007429438          0.5776
C490       C    1.1573678415    0.4761261766    0.0030301765          0.5778
N491       N    1.2410141698    0.5162143131   -0.0121548407          -0.404
C492       C    1.1878815811    0.5619747643   -0.0240404633         -0.3718
H493       H    1.1293697003    0.5520357109   -0.0155403921         -0.3721
O494       O    1.1424983065    0.4477209209   -0.0025983652          0.5558
H495       H    1.2080324269    0.4571528427    0.0024292811          0.5605
N496       N    1.2637564401    0.4933737848   -0.0019265914          0.5818
C497       C    1.3020052769    0.4960247396   -0.0153364576          0.5762
C498       C    1.3316856460    0.4816873069    0.0095220470          0.5733
C499       C    1.3675510591    0.5000000000    0.0000000000          0.5808
N500       N    1.3580405931    0.5145672830   -0.0340278690          0.5791
N501       N    1.3215463639    0.5254467830   -0.0302491690         -0.4092
H502       H    1.3131116833    0.5320053256   -0.0543394127         -0.4131
H503       H    1.3572453074    0.4951247199   -0.0517839069          0.5582
H504       H    1.3252975212    0.4869629750    0.0365020675         -0.4122
H505       H    1.3708820597    0.5217656723    0.0177008737         -0.3968
H506       H    1.3336663389    0.4536877319    0.0064073084          0.5516
H507       H    1.3015300196    0.4777463968   -0.0371828529          0.5546
H508       H    1.1278994884    0.4664730898   -0.0144081250          0.5659
N509       N    1.1924811042    0.5783582394   -0.0482748651         -0.3693
C460       C    1.0000000000    0.5000000000   -0.1324489409         -0.4044
C461       C    1.0227662011    0.4773707222   -0.1469632463         -0.3865
C462       C    1.0287776247    0.4751614292   -0.1820978861         -0.3868
C463       C    1.0116071741    0.4941828632   -0.2067383138         -0.4042
C464       C    0.9899840838    0.5171736533   -0.1920664683          0.5776
C465       C    0.9860788153    0.5196301307   -0.1573678415          0.5778
N466       N    1.0183607005    0.4914251077   -0.2410141698          -0.404
C467       C    1.0504049412    0.4566622891   -0.1878815811         -0.3718
H468       H    1.0382245799    0.4614240944   -0.1293697003         -0.3721
O469       O    0.9776599900    0.5473368521   -0.1424983065          0.5558
H470       H    0.9776693285    0.5366486208   -0.2080324269          0.5605
N471       N    0.9985773265    0.5067523686   -0.2637564401          0.5818
C472       C    1.0116544860    0.5107323149   -0.3020052769          0.5762
C473       C    0.9829728713    0.5116662331   -0.3316856460          0.5733
C474       C    1.0000000000    0.5000000000   -0.3675510591          0.5808
N475       N    1.0368777213    0.5031835947   -0.3580405931          0.5791
N476       N    1.0386707322    0.4918069869   -0.3215463639         -0.4092
H477       H    1.0630095910    0.4973724401   -0.3131116833         -0.4131
H478       H    1.0433787929    0.5286988099   -0.3572453074          0.5582
H479       H    0.9616609182    0.4943008988   -0.3252975212         -0.4122
H480       H    0.9946421454    0.4724616845   -0.3708820597         -0.3968
H481       H    0.9725278948    0.5378307178   -0.3336663389          0.5516
H482       H    1.0223119807    0.5371478522   -0.3015300196          0.5546
H483       H    0.9969120530    0.5363608630   -0.1278994884          0.5659
N484       N    1.0795000844    0.4536296123   -0.1924811042         -0.3693
C435       C    1.0000000000    0.5000000000    0.1324489409         -0.4044
C436       C    0.9772337989    0.4773707222    0.1469632463         -0.3865
C437       C    0.9712223753    0.4751614292    0.1820978861         -0.3868
C438       C    0.9883928259    0.4941828632    0.2067383138         -0.4042
C439       C    1.0100159162    0.5171736533    0.1920664683          0.5776
C440       C    1.0139211847    0.5196301307    0.1573678415          0.5778
N441       N    0.9816392995    0.4914251077    0.2410141698          -0.404
C442       C    0.9495950588    0.4566622891    0.1878815811         -0.3718
H443       H    0.9617754201    0.4614240944    0.1293697003         -0.3721
O444       O    1.0223400100    0.5473368521    0.1424983065          0.5558
H445       H    1.0223306715    0.5366486208    0.2080324269          0.5605
N446       N    1.0014226735    0.5067523686    0.2637564401          0.5818
C447       C    0.9883455140    0.5107323149    0.3020052769          0.5762
C448       C    1.0170271287    0.5116662331    0.3316856460          0.5733
C449       C    1.0000000000    0.5000000000    0.3675510591          0.5808
N450       N    0.9631222787    0.5031835947    0.3580405931          0.5791
N451       N    0.9613292678    0.4918069869    0.3215463639         -0.4092
H452       H    0.9369904090    0.4973724401    0.3131116833         -0.4131
H453       H    0.9566212071    0.5286988099    0.3572453074          0.5582
H454       H    1.0383390818    0.4943008988    0.3252975212         -0.4122
H455       H    1.0053578546    0.4724616845    0.3708820597         -0.3968
H456       H    1.0274721052    0.5378307178    0.3336663389          0.5516
H457       H    0.9776880193    0.5371478522    0.3015300196          0.5546
H458       H    1.0030879470    0.5363608630    0.1278994884          0.5659
N459       N    0.9204999156    0.4536296123    0.1924811042         -0.3693
C410       C    1.0000000000   -0.1324489409    0.5000000000         -0.4044
C411       C    1.0227662011   -0.1469632463    0.5226292778         -0.3865
C412       C    1.0287776247   -0.1820978861    0.5248385708         -0.3868
C413       C    1.0116071741   -0.2067383138    0.5058171368         -0.4042
C414       C    0.9899840838   -0.1920664683    0.4828263467          0.5776
C415       C    0.9860788153   -0.1573678415    0.4803698693          0.5778
N416       N    1.0183607005   -0.2410141698    0.5085748923          -0.404
C417       C    1.0504049412   -0.1878815811    0.5433377109         -0.3718
H418       H    1.0382245799   -0.1293697003    0.5385759056         -0.3721
O419       O    0.9776599900   -0.1424983065    0.4526631479          0.5558
H420       H    0.9776693285   -0.2080324269    0.4633513792          0.5605
N421       N    0.9985773265   -0.2637564401    0.4932476314          0.5818
C422       C    1.0116544860   -0.3020052769    0.4892676851          0.5762
C423       C    0.9829728713   -0.3316856460    0.4883337669          0.5733
C424       C    1.0000000000   -0.3675510591    0.5000000000          0.5808
N425       N    1.0368777213   -0.3580405931    0.4968164053          0.5791
N426       N    1.0386707322   -0.3215463639    0.5081930131         -0.4092
H427       H    1.0630095910   -0.3131116833    0.5026275599         -0.4131
H428       H    1.0433787929   -0.3572453074    0.4713011901          0.5582
H429       H    0.9616609182   -0.3252975212    0.5056991012         -0.4122
H430       H    0.9946421454   -0.3708820597    0.5275383155         -0.3968
H431       H    0.9725278948   -0.3336663389    0.4621692822          0.5516
H432       H    1.0223119807   -0.3015300196    0.4628521478          0.5546
H433       H    0.9969120530   -0.1278994884    0.4636391370          0.5659
N434       N    1.0795000844   -0.1924811042    0.5463703877         -0.3693
C385       C    1.0000000000    0.3675510591    0.5000000000         -0.4044
C386       C    1.0272276263    0.3530367537    0.4829988091         -0.3865
C387       C    1.0307504926    0.3179021139    0.4776502016         -0.3868
C388       C    1.0083125168    0.2932616862    0.4900266538         -0.4042
C389       C    0.9809937882    0.3079335317    0.5058323974          0.5776
C390       C    0.9777109081    0.3426321585    0.5090740176          0.5778
N391       N    1.0125387285    0.2589858302    0.4840806914          -0.404
C392       C    1.0536970625    0.3121184189    0.4608152994         -0.3718
H393       H    1.0462812212    0.3706302997    0.4715875457         -0.3721
O394       O    0.9488140515    0.3575016935    0.5109477070          0.5558
H395       H    0.9592223698    0.2919675731    0.5133777865          0.5605
N396       N    0.9931011452    0.2362435599    0.4998441671          0.5818
C397       C    0.9922105739    0.1979947231    0.4862038241          0.5762
C398       C    0.9847558416    0.1683143540    0.5139154497          0.5733
C399       C    1.0000000000    0.1324489409    0.5000000000          0.5808
N400       N    1.0053163149    0.1419594069    0.4633688876          0.5791
N401       N    1.0168018982    0.1784536361    0.4642194577         -0.4092
H402       H    1.0169377021    0.1868883167    0.4392527624         -0.4131
H403       H    0.9819580184    0.1427546926    0.4512165164          0.5582
H404       H    0.9967993132    0.1747024788    0.5386279763         -0.4122
H405       H    1.0255889053    0.1291179403    0.5115010153         -0.3968
H406       H    0.9568981348    0.1663336611    0.5181137791          0.5516
H407       H    0.9689242546    0.1984699804    0.4697992475          0.5546
H408       H    0.9638939347    0.3721005116    0.4947085141          0.5659
N409       N    1.0632895426    0.3075188958    0.4331800174         -0.3693
C360       C    0.8675510591   -0.0000000000    0.5000000000         -0.4044
C361       C    0.8530367537    0.0319142481    0.4965554542         -0.3865
C362       C    0.8179021139    0.0379882600    0.4985863576         -0.3868
C363       C    0.7932616862    0.0126972756    0.5027101222         -0.4042
C364       C    0.8079335317   -0.0185503133    0.5071511413          0.5776
C365       C    0.8426321585   -0.0231342992    0.5066291488          0.5778
N366       N    0.7589858302    0.0196933898    0.5047764524          -0.404
C367       C    0.8121184189    0.0664327956    0.4976550151         -0.3718
H368       H    0.8706302997    0.0539473451    0.4937627769         -0.3721
O369       O    0.8575016935   -0.0470186107    0.5230022577          0.5558
H370       H    0.7919675731   -0.0403333833    0.5146628267          0.5605
N371       N    0.7362435599   -0.0053296446    0.5043833059          0.5818
C372       C    0.6979947231    0.0023942287    0.5156613312          0.5762
C373       C    0.6683143540   -0.0205835993    0.4984704428          0.5733
C374       C    0.6324489409   -0.0000000000    0.5000000000          0.5808
N375       N    0.6419594069    0.0268046726    0.5255266749          0.5791
N376       N    0.6784536361    0.0353126668    0.5177641929         -0.4092
H377       H    0.6868883167    0.0508389498    0.5373164014         -0.4131
H378       H    0.6427546926    0.0159389081    0.5495105300          0.5582
H379       H    0.6747024788   -0.0263740167    0.4715961941         -0.4122
H380       H    0.6291179403    0.0130223966    0.4751508026         -0.3968
H381       H    0.6663336611   -0.0450863305    0.5123734627          0.5516
H382       H    0.6984699804   -0.0057887568    0.5429450545          0.5546
H383       H    0.8721005116   -0.0251290644    0.5264608747          0.5659
N384       N    0.8075188958    0.0910447931    0.5134655833         -0.3693
C335       C    1.3675510591   -0.0000000000    0.5000000000         -0.4044
C336       C    1.3530367537   -0.0294270475    0.4871768567         -0.3865
C337       C    1.3179021139   -0.0336964114    0.4824028939         -0.3868
C338       C    1.2932616862   -0.0096856208    0.4913539419         -0.4042
C339       C    1.3079335317    0.0196561786    0.5029812063          0.5776
C340       C    1.3426321585    0.0233790703    0.5057061797          0.5778
N341       N    1.2589858302   -0.0147383496    0.4860922629          -0.404
C342       C    1.3121184189   -0.0588643217    0.4691162354         -0.3718
H343       H    1.3706302997   -0.0499484823    0.4786840879         -0.3721
O344       O    1.3575016935    0.0522381775    0.5033206060          0.5558
H345       H    1.2919675731    0.0422989350    0.5072512338          0.5605
N346       N    1.2362435599    0.0068013628    0.4988338328          0.5818
C347       C    1.1979947231    0.0056813442    0.4852104106          0.5762
C348       C    1.1683143540    0.0171205581    0.5115286859          0.5733
C349       C    1.1324489409   -0.0000000000    0.5000000000          0.5808
N350       N    1.1419594069   -0.0106323645    0.4645450366          0.5791
N351       N    1.1784536361   -0.0218689225    0.4670712706         -0.4092
H352       H    1.1868883167   -0.0256657199    0.4423945883         -0.4131
H353       H    1.1427546926    0.0106905612    0.4490976104          0.5582
H354       H    1.1747024788    0.0088325513    0.5377405748         -0.4122
H355       H    1.1291179403   -0.0236249536    0.5151303336         -0.3968
H356       H    1.1663336611    0.0452927677    0.5115950409          0.5516
H357       H    1.1984699804    0.0263092988    0.4655673381          0.5546
H358       H    1.3721005116    0.0349392385    0.4894692171          0.5659
N359       N    1.3075188958   -0.0724069578    0.4431870724         -0.3693
C310       C   -0.0000000000   -0.1324489409    0.0000000000         -0.4044
C311       C    0.0251339076   -0.1469632463    0.0199667427         -0.3865
C312       C    0.0313531498   -0.1820978861    0.0214961922         -0.3868
C313       C    0.0121803704   -0.2067383138    0.0044949024         -0.4042
C314       C   -0.0118575341   -0.1920664683   -0.0159578142          0.5776
C315       C   -0.0160109908   -0.1573678415   -0.0179663460          0.5778
N316       N    0.0191979287   -0.2410141698    0.0064871899          -0.404
C317       C    0.0548974544   -0.1878815811    0.0374844606         -0.3718
H318       H    0.0422643879   -0.1293697003    0.0341019136         -0.3721
O319       O   -0.0274486303   -0.1424983065   -0.0445693427          0.5558
H320       H   -0.0262547952   -0.2080324269   -0.0339479900          0.5605
N321       N   -0.0021622601   -0.2637564401   -0.0065530995          0.5818
C322       C    0.0103932501   -0.3020052769   -0.0119578418          0.5762
C323       C   -0.0182151790   -0.3316856460   -0.0097072838          0.5733
C324       C   -0.0000000000   -0.3675510591    0.0000000000          0.5808
N325       N    0.0362977092   -0.3580405931   -0.0072510625          0.5791
N326       N    0.0393405199   -0.3215463639    0.0038567453         -0.4092
H327       H    0.0629126346   -0.3131116833   -0.0043718469         -0.4131
H328       H    0.0399309343   -0.3572453074   -0.0333295943          0.5582
H329       H   -0.0374712789   -0.3252975212    0.0099130321         -0.4122
H330       H   -0.0022728348   -0.3708820597    0.0279624685         -0.3968
H331       H   -0.0314955651   -0.3336663389   -0.0345529906          0.5516
H332       H    0.0180575123   -0.3015300196   -0.0393917969          0.5546
H333       H   -0.0070987218   -0.1278994884   -0.0357946354          0.5659
N334       N    0.0841494654   -0.1924811042    0.0372739016         -0.3693
C285       C   -0.0000000000    0.3675510591    0.0000000000         -0.4044
C286       C    0.0294727731    0.3530367537    0.0127176954         -0.3865
C287       C    0.0358756499    0.3179021139    0.0125715562         -0.3868
C288       C    0.0129312366    0.2932616862    0.0011613318         -0.4042
C289       C   -0.0156102851    0.3079335317   -0.0123114559          0.5776
C290       C   -0.0201439186    0.3426321585   -0.0131667748          0.5778
N291       N    0.0202255357    0.2589858302    0.0012537175          -0.404
C292       C    0.0627758813    0.3121184189    0.0218633028         -0.3718
H293       H    0.0496978442    0.3706302997    0.0218939097         -0.3721
O294       O   -0.0381262078    0.3575016935   -0.0358642703          0.5558
H295       H   -0.0342025826    0.2919675731   -0.0259222615          0.5605
N296       N   -0.0037970912    0.2362435599   -0.0057619945          0.5818
C297       C    0.0069134492    0.1979947231   -0.0142553094          0.5762
C298       C   -0.0201169542    0.1683143540   -0.0046186858          0.5733
C299       C   -0.0000000000    0.1324489409    0.0000000000          0.5808
N300       N    0.0331487218    0.1419594069   -0.0164700895          0.5791
N301       N    0.0389842010    0.1784536361   -0.0065408764         -0.4092
H302       H    0.0595930375    0.1868883167   -0.0206344983         -0.4131
H303       H    0.0298521539    0.1427546926   -0.0425933126          0.5582
H304       H   -0.0335871303    0.1747024788    0.0193460495         -0.4122
H305       H    0.0051013652    0.1291179403    0.0275869806         -0.3968
H306       H   -0.0394196853    0.1663336611   -0.0251389775          0.5516
H307       H    0.0071546706    0.1984699804   -0.0427387190          0.5546
H308       H   -0.0161917718    0.3721005116   -0.0327028179          0.5659
N309       N    0.0909598174    0.3075188958    0.0140281108         -0.3693
C260       C   -0.3675510591   -0.0000000000    0.0000000000         -0.4044
C261       C   -0.3530367537    0.0318843582    0.0037110411         -0.3865
C262       C   -0.3179021139    0.0379751246    0.0017309517         -0.3868
C263       C   -0.2932616862    0.0127194732   -0.0026039530         -0.4042
C264       C   -0.3079335317   -0.0184899245   -0.0073058634          0.5776
C265       C   -0.3426321585   -0.0230781112   -0.0068221843          0.5778
N266       N   -0.2589858302    0.0197326057   -0.0046117647          -0.404
C267       C   -0.3121184189    0.0664108870    0.0028998908         -0.3718
H268       H   -0.3706302997    0.0538933560    0.0066876883         -0.3721
O269       O   -0.3575016935   -0.0468248062   -0.0233942543          0.5558
H270       H   -0.2919675731   -0.0402094808   -0.0149992650          0.5605
N271       N   -0.2362435599   -0.0052928399   -0.0044276775          0.5818
C272       C   -0.1979947231    0.0025249819   -0.0156407830          0.5762
C273       C   -0.1683143540   -0.0205956591    0.0013575459          0.5733
C274       C   -0.1324489409   -0.0000000000    0.0000000000          0.5808
N275       N   -0.1419594069    0.0270169902   -0.0253018546          0.5791
N276       N   -0.1784536361    0.0354598388   -0.0174685667         -0.4092
H277       H   -0.1868883167    0.0511489215   -0.0368903843         -0.4131
H278       H   -0.1427546926    0.0163519690   -0.0493756466          0.5582
H279       H   -0.1747024788   -0.0266103853    0.0281824830         -0.4122
H280       H   -0.1291179403    0.0128143490    0.0249571209         -0.3968
H281       H   -0.1663336611   -0.0449813877   -0.0127496877          0.5516
H282       H   -0.1984699804   -0.0054297865   -0.0429919158          0.5546
H283       H   -0.3721005116   -0.0249071301   -0.0266698827          0.5659
N284       N   -0.3075188958    0.0911541091   -0.0127045140         -0.3693
C235       C    0.3675510591   -0.0000000000    0.0000000000         -0.4044
C236       C    0.3530367537    0.0043073253   -0.0318092923         -0.3865
C237       C    0.3179021139    0.0077352356   -0.0372192479         -0.3868
C238       C    0.2932616862    0.0056752409   -0.0116772090         -0.4042
C239       C    0.3079335317    0.0024951577    0.0197237708          0.5776
C240       C    0.3426321585    0.0008893829    0.0240489171          0.5778
N241       N    0.2589858302    0.0093586181   -0.0179738802          -0.404
C242       C    0.3121184189    0.0136506061   -0.0650574841         -0.3718
H243       H    0.3706302997    0.0068785105   -0.0538693335         -0.3721
O244       O    0.3575016935    0.0110587275    0.0511620773          0.5558
H245       H    0.2919675731    0.0045652937    0.0426724547          0.5605
N246       N    0.2362435599    0.0029776892    0.0062250983          0.5818
C247       C    0.1979947231    0.0157785809    0.0014303884          0.5762
C248       C    0.1683143540   -0.0064198458    0.0196165666          0.5733
C249       C    0.1324489409   -0.0000000000    0.0000000000          0.5808
N250       N    0.1419594069    0.0312085814   -0.0199029156          0.5791
N251       N    0.1784536361    0.0257122765   -0.0300238210         -0.4092
H252       H    0.1868883167    0.0484166543   -0.0404096550         -0.4131
H253       H    0.1427546926    0.0518878882   -0.0036039460          0.5582
H254       H    0.1747024788   -0.0338985513    0.0187950305         -0.4122
H255       H    0.1291179403   -0.0210023608   -0.0186001684         -0.3968
H256       H    0.1663336611    0.0012031847    0.0467379088          0.5516
H257       H    0.1984699804    0.0403047086    0.0159159629          0.5546
H258       H    0.3721005116    0.0196644714    0.0307401421          0.5659
N259       N    0.3075188958    0.0349007603   -0.0851611015         -0.3693
C210       C   -0.0000000000    0.0000000000   -0.1324489409         -0.4044
C211       C    0.0153400622    0.0281969257   -0.1469632463         -0.3865
C212       C    0.0157756301    0.0345866416   -0.1820978861         -0.3868
C213       C    0.0023301354    0.0127724719   -0.2067383138         -0.4042
C214       C   -0.0136773856   -0.0144285158   -0.1920664683          0.5776
C215       C   -0.0149406323   -0.0188658135   -0.1573678415          0.5778
N216       N    0.0030841463    0.0200282835   -0.2410141698          -0.404
C217       C    0.0274704067    0.0605325701   -0.1878815811         -0.3718
H218       H    0.0263139678    0.0475057270   -0.1293697003         -0.3721
O219       O   -0.0391764706   -0.0347139419   -0.1424983065          0.5558
H220       H   -0.0289193962   -0.0317088129   -0.2080324269          0.5605
N221       N   -0.0060828268   -0.0032584813   -0.2637564401          0.5818
C222       C   -0.0135690373    0.0081786829   -0.3020052769          0.5762
C223       C   -0.0064253732   -0.0196147568   -0.3316856460          0.5733
C224       C   -0.0000000000    0.0000000000   -0.3675510591          0.5808
N225       N   -0.0133936506    0.0345066911   -0.3580405931          0.5791
N226       N   -0.0029758055    0.0394169452   -0.3215463639         -0.4092
H227       H   -0.0151408744    0.0612198216   -0.3131116833         -0.4131
H228       H   -0.0397082511    0.0335945853   -0.3572453074          0.5582
H229       H    0.0162179532   -0.0352043029   -0.3252975212         -0.4122
H230       H    0.0279361148    0.0025766091   -0.3708820597         -0.3968
H231       H   -0.0286128318   -0.0369754734   -0.3336663389          0.5516
H232       H   -0.0419130061    0.0110039689   -0.3015300196          0.5546
H233       H   -0.0340373682   -0.0131569501   -0.1278994884          0.5659
N234       N    0.0222254308    0.0893112899   -0.1924811042         -0.3693
C185       C   -0.0000000000    0.0000000000    0.3675510591         -0.4044
C186       C    0.0048920827   -0.0317246222    0.3530367537         -0.3865
C187       C    0.0084189889   -0.0370705666    0.3179021139         -0.3868
C188       C    0.0058892122   -0.0115707714    0.2932616862         -0.4042
C189       C    0.0021316960    0.0197663557    0.3079335317          0.5776
C190       C    0.0004465838    0.0240612131    0.3426321585          0.5778
N191       N    0.0096878629   -0.0177985790    0.2589858302          -0.404
C192       C    0.0148457525   -0.0647952075    0.3121184189         -0.3718
H193       H    0.0078688733   -0.0537336006    0.3706302997         -0.3721
O194       O    0.0101151563    0.0513569589    0.3575016935          0.5558
H195       H    0.0037790839    0.0427492552    0.2919675731          0.5605
N196       N    0.0028626045    0.0062788516    0.2362435599          0.5818
C197       C    0.0157495799    0.0017205693    0.1979947231          0.5762
C198       C   -0.0067798240    0.0194950787    0.1683143540          0.5733
C199       C   -0.0000000000    0.0000000000    0.1324489409          0.5808
N200       N    0.0315696308   -0.0193251135    0.1419594069          0.5791
N201       N    0.0262605442   -0.0295454702    0.1784536361         -0.4092
H202       H    0.0491522390   -0.0395116442    0.1868883167         -0.4131
H203       H    0.0519454328   -0.0026482783    0.1427546926          0.5582
H204       H   -0.0342387531    0.0181679040    0.1747024788         -0.4122
H205       H   -0.0206564450   -0.0189835904    0.1291179403         -0.3968
H206       H    0.0003427151    0.0467521371    0.1663336611          0.5516
H207       H    0.0400049288    0.0166551218    0.1984699804          0.5546
H208       H    0.0190953319    0.0310968820    0.3721005116          0.5659
N209       N    0.0364623373   -0.0845042853    0.3075188958         -0.3693
loop_
_geom_bond_atom_site_label_1
_geom_bond_atom_site_label_2
_geom_bond_distance
_geom_bond_site_symmetry_2
_ccdc_geom_bond_type
Zn1          O5 1.942       .   S
Zn1          O6 1.922       .   S
Zn1         O10 1.922       .   S
Zn1         O17 1.922       .   S
Zn2          O5 1.942       .   S
Zn2          O7 1.922       .   S
Zn2          O9 1.922       .   S
Zn2         O13 1.922       .   S
Zn3          O5 1.942       .   S
Zn3          O8 1.922       .   S
Zn3         O11 1.922       .   S
Zn3         O14 1.922       .   S
Zn4          O5 1.942       .   S
Zn4         O12 1.922       .   S
Zn4         O15 1.922       .   S
Zn4         O16 1.922       .   S
O6          C18 1.304       .   A
O7          C19 1.304       .   A
O8          C20 1.304       .   A
O9          C18 1.304       .   A
O10         C20 1.304       .   A
O11         C19 1.304       .   A
O12         C21 1.304       .   A
O13         C22 1.304       .   A
O14         C21 1.304       .   A
O15         C22 1.304       .   A
O16         C23 1.304       .   A
O17         C23 1.304       .   A
C18        C199 1.540       .   S
C19        C249 1.540       .   S
C20        C310 1.540       .   S
C21        C210 1.540       .   S
C22        C299 1.540       .   S
C23        C274 1.540       .   S
Zn24        O28 1.942       .   S
Zn24        O29 1.922       .   S
Zn24        O33 1.922       .   S
Zn24        O40 1.922       .   S
Zn25        O28 1.942       .   S
Zn25        O30 1.922       .   S
Zn25        O32 1.922       .   S
Zn25        O36 1.922       .   S
Zn26        O28 1.942       .   S
Zn26        O31 1.922       .   S
Zn26        O34 1.922       .   S
Zn26        O37 1.922       .   S
Zn27        O28 1.942       .   S
Zn27        O35 1.922       .   S
Zn27        O38 1.922       .   S
Zn27        O39 1.922       .   S
O29         C41 1.304       .   A
O30         C42 1.304       .   A
O31         C43 1.304       .   A
O32         C41 1.304       .   A
O33         C43 1.304       .   A
O34         C42 1.304       .   A
O35         C44 1.304       .   A
O36         C45 1.304       .   A
O37         C44 1.304       .   A
O38         C45 1.304       .   A
O39         C46 1.304       .   A
O40         C46 1.304       .   A
C41        C185 1.540   1_655   S
C42        C349 1.540       .   S
C43        C399 1.540       .   S
C44        C224 1.540   1_656   S
C45        C410 1.540       .   S
C46        C360 1.540       .   S
Zn47        O51 1.942       .   S
Zn47        O52 1.922       .   S
Zn47        O56 1.922       .   S
Zn47        O63 1.922       .   S
Zn48        O51 1.942       .   S
Zn48        O53 1.922       .   S
Zn48        O55 1.922       .   S
Zn48        O59 1.922       .   S
Zn49        O51 1.942       .   S
Zn49        O54 1.922       .   S
Zn49        O57 1.922       .   S
Zn49        O60 1.922       .   S
Zn50        O51 1.942       .   S
Zn50        O58 1.922       .   S
Zn50        O61 1.922       .   S
Zn50        O62 1.922       .   S
O52         C64 1.304       .   A
O53         C65 1.304       .   A
O54         C66 1.304       .   A
O55         C64 1.304       .   A
O56         C66 1.304       .   A
O57         C65 1.304       .   A
O58         C67 1.304       .   A
O59         C68 1.304       .   A
O60         C67 1.304       .   A
O61         C68 1.304       .   A
O62         C69 1.304       .   A
O63         C69 1.304       .   A
C64        C285 1.540   1_655   S
C65        C510 1.540       .   S
C66        C435 1.540       .   S
C67        C324 1.540   1_665   S
C68        C460 1.540       .   S
C69        C485 1.540       .   S
Zn70        O74 1.942       .   S
Zn70        O75 1.922       .   S
Zn70        O79 1.922       .   S
Zn70        O86 1.922       .   S
Zn71        O74 1.942       .   S
Zn71        O76 1.922       .   S
Zn71        O78 1.922       .   S
Zn71        O82 1.922       .   S
Zn72        O74 1.942       .   S
Zn72        O77 1.922       .   S
Zn72        O80 1.922       .   S
Zn72        O83 1.922       .   S
Zn73        O74 1.942       .   S
Zn73        O81 1.922       .   S
Zn73        O84 1.922       .   S
Zn73        O85 1.922       .   S
O75         C87 1.304       .   A
O76         C88 1.304       .   A
O77         C89 1.304       .   A
O78         C87 1.304       .   A
O79         C89 1.304       .   A
O80         C88 1.304       .   A
O81         C90 1.304       .   A
O82         C91 1.304       .   A
O83         C90 1.304       .   A
O84         C91 1.304       .   A
O85         C92 1.304       .   A
O86         C92 1.304       .   A
C87        C385 1.540       .   S
C88        C449 1.540       .   S
C89        C574 1.540       .   S
C90        C424 1.540   1_565   S
C91        C535 1.540       .   S
C92        C474 1.540   1_556   S
Zn93        O97 1.942       .   S
Zn93        O98 1.922       .   S
Zn93       O102 1.922       .   S
Zn93       O109 1.922       .   S
Zn94        O97 1.942       .   S
Zn94        O99 1.922       .   S
Zn94       O101 1.922       .   S
Zn94       O105 1.922       .   S
Zn95        O97 1.942       .   S
Zn95       O100 1.922       .   S
Zn95       O103 1.922       .   S
Zn95       O106 1.922       .   S
Zn96        O97 1.942       .   S
Zn96       O104 1.922       .   S
Zn96       O107 1.922       .   S
Zn96       O108 1.922       .   S
O98        C110 1.304       .   A
O99        C111 1.304       .   A
O100       C112 1.304       .   A
O101       C110 1.304       .   A
O102       C112 1.304       .   A
O103       C111 1.304       .   A
O104       C113 1.304       .   A
O105       C114 1.304       .   A
O106       C113 1.304       .   A
O107       C114 1.304       .   A
O108       C115 1.304       .   A
O109       C115 1.304       .   A
C110       C235 1.540   1_565   S
C111       C674 1.540       .   S
C112       C610 1.540       .   S
C113       C260 1.540   1_665   S
C114       C585 1.540       .   S
C115       C635 1.540       .   S
Zn116      O120 1.942       .   S
Zn116      O121 1.922       .   S
Zn116      O125 1.922       .   S
Zn116      O132 1.922       .   S
Zn117      O120 1.942       .   S
Zn117      O122 1.922       .   S
Zn117      O124 1.922       .   S
Zn117      O128 1.922       .   S
Zn118      O120 1.942       .   S
Zn118      O123 1.922       .   S
Zn118      O126 1.922       .   S
Zn118      O129 1.922       .   S
Zn119      O120 1.942       .   S
Zn119      O127 1.922       .   S
Zn119      O130 1.922       .   S
Zn119      O131 1.922       .   S
O121       C133 1.304       .   A
O122       C134 1.304       .   A
O123       C135 1.304       .   A
O124       C133 1.304       .   A
O125       C135 1.304       .   A
O126       C134 1.304       .   A
O127       C136 1.304       .   A
O128       C137 1.304       .   A
O129       C136 1.304       .   A
O130       C137 1.304       .   A
O131       C138 1.304       .   A
O132       C138 1.304       .   A
C133       C335 1.540   1_465   S
C134       C624 1.540   1_556   S
C135       C724 1.540       .   S
C136       C374 1.540   1_565   S
C137       C685 1.540       .   S
C138       C599 1.540       .   S
Zn139      O143 1.942       .   S
Zn139      O144 1.922       .   S
Zn139      O148 1.922       .   S
Zn139      O155 1.922       .   S
Zn140      O143 1.942       .   S
Zn140      O145 1.922       .   S
Zn140      O147 1.922       .   S
Zn140      O151 1.922       .   S
Zn141      O143 1.942       .   S
Zn141      O146 1.922       .   S
Zn141      O149 1.922       .   S
Zn141      O152 1.922       .   S
Zn142      O143 1.942       .   S
Zn142      O150 1.922       .   S
Zn142      O153 1.922       .   S
Zn142      O154 1.922       .   S
O144       C156 1.304       .   A
O145       C157 1.304       .   A
O146       C158 1.304       .   A
O147       C156 1.304       .   A
O148       C158 1.304       .   A
O149       C157 1.304       .   A
O150       C159 1.304       .   A
O151       C160 1.304       .   A
O152       C159 1.304       .   A
O153       C160 1.304       .   A
O154       C161 1.304       .   A
O155       C161 1.304       .   A
C156       C660 1.540       .   S
C157       C524 1.540       .   S
C158       C735 1.540       .   S
C159       C649 1.540   1_545   S
C160       C760 1.540       .   S
C161       C499 1.540   1_455   S
Zn162      O166 1.942       .   S
Zn162      O167 1.922       .   S
Zn162      O171 1.922       .   S
Zn162      O178 1.922       .   S
Zn163      O166 1.942       .   S
Zn163      O168 1.922       .   S
Zn163      O170 1.922       .   S
Zn163      O174 1.922       .   S
Zn164      O166 1.942       .   S
Zn164      O169 1.922       .   S
Zn164      O172 1.922       .   S
Zn164      O175 1.922       .   S
Zn165      O166 1.942       .   S
Zn165      O173 1.922       .   S
Zn165      O176 1.922       .   S
Zn165      O177 1.922       .   S
O167       C179 1.304       .   A
O168       C180 1.304       .   A
O169       C181 1.304       .   A
O170       C179 1.304       .   A
O171       C181 1.304       .   A
O172       C180 1.304       .   A
O173       C182 1.304       .   A
O174       C183 1.304       .   A
O175       C182 1.304       .   A
O176       C183 1.304       .   A
O177       C184 1.304       .   A
O178       C184 1.304       .   A
C179       C549 1.540   1_455   S
C180       C699 1.540   1_545   S
C181       C749 1.540       .   S
C182       C560 1.540       .   S
C183       C774 1.540   1_556   S
C184       C710 1.540       .   S
C760       C761 0.029       .   A
C760       C765 0.029       .   A
C761       C762 0.029       .   A
C761       H768 0.023       .   A
C762       C763 0.029       .   A
C762       C767 0.024       .   A
C763       C764 0.029       .   A
C763       N766 0.029       .   A
C764       C765 0.029       .   A
C764       H770 0.023       .   A
C765       O769 0.027       .   A
N766       N771 0.028       .   A
C767       N784 0.024       .   A
O769       H783 0.022       .   A
N771       C772 0.034       .   A
C772       C773 0.034       .   A
C772       N776 0.032       .   A
C772       H782 0.024       .   A
C773       C774 0.034       .   A
C773       H779 0.023       .   A
C773       H781 0.023       .   A
C774       N775 0.032       .   A
C774       H780 0.023       .   A
N775       N776 0.032       .   A
N775       H778 0.022       .   A
N776       H777 0.022       .   A
C735       C736 0.029       .   A
C735       C740 0.029       .   A
C736       C737 0.029       .   A
C736       H743 0.023       .   A
C737       C738 0.029       .   A
C737       C742 0.024       .   A
C738       C739 0.029       .   A
C738       N741 0.029       .   A
C739       C740 0.029       .   A
C739       H745 0.023       .   A
C740       O744 0.027       .   A
N741       N746 0.028       .   A
C742       N759 0.024       .   A
O744       H758 0.022       .   A
N746       C747 0.034       .   A
C747       C748 0.034       .   A
C747       N751 0.032       .   A
C747       H757 0.024       .   A
C748       C749 0.034       .   A
C748       H754 0.023       .   A
C748       H756 0.023       .   A
C749       N750 0.032       .   A
C749       H755 0.023       .   A
N750       N751 0.032       .   A
N750       H753 0.022       .   A
N751       H752 0.022       .   A
C710       C711 0.029       .   A
C710       C715 0.029       .   A
C711       C712 0.029       .   A
C711       H718 0.023       .   A
C712       C713 0.029       .   A
C712       C717 0.024       .   A
C713       C714 0.029       .   A
C713       N716 0.029       .   A
C714       C715 0.029       .   A
C714       H720 0.023       .   A
C715       O719 0.027       .   A
N716       N721 0.028       .   A
C717       N734 0.024       .   A
O719       H733 0.022       .   A
N721       C722 0.034       .   A
C722       C723 0.034       .   A
C722       N726 0.032       .   A
C722       H732 0.024       .   A
C723       C724 0.034       .   A
C723       H729 0.023       .   A
C723       H731 0.023       .   A
C724       N725 0.032       .   A
C724       H730 0.023       .   A
N725       N726 0.032       .   A
N725       H728 0.022       .   A
N726       H727 0.022       .   A
C685       C686 0.029       .   A
C685       C690 0.029       .   A
C686       C687 0.029       .   A
C686       H693 0.023       .   A
C687       C688 0.029       .   A
C687       C692 0.024       .   A
C688       C689 0.029       .   A
C688       N691 0.029       .   A
C689       C690 0.029       .   A
C689       H695 0.023       .   A
C690       O694 0.027       .   A
N691       N696 0.028       .   A
C692       N709 0.024       .   A
O694       H708 0.022       .   A
N696       C697 0.034       .   A
C697       C698 0.034       .   A
C697       N701 0.032       .   A
C697       H707 0.024       .   A
C698       C699 0.034       .   A
C698       H704 0.023       .   A
C698       H706 0.023       .   A
C699       N700 0.032       .   A
C699       H705 0.023       .   A
N700       N701 0.032       .   A
N700       H703 0.022       .   A
N701       H702 0.022       .   A
C660       C661 0.029       .   A
C660       C665 0.029       .   A
C661       C662 0.029       .   A
C661       H668 0.023       .   A
C662       C663 0.029       .   A
C662       C667 0.024       .   A
C663       C664 0.029       .   A
C663       N666 0.029       .   A
C664       C665 0.029       .   A
C664       H670 0.023       .   A
C665       O669 0.027       .   A
N666       N671 0.028       .   A
C667       N684 0.024       .   A
O669       H683 0.022       .   A
N671       C672 0.034       .   A
C672       C673 0.034       .   A
C672       N676 0.032       .   A
C672       H682 0.024       .   A
C673       C674 0.034       .   A
C673       H679 0.023       .   A
C673       H681 0.023       .   A
C674       N675 0.032       .   A
C674       H680 0.023       .   A
N675       N676 0.032       .   A
N675       H678 0.022       .   A
N676       H677 0.022       .   A
C635       C636 0.029       .   A
C635       C640 0.029       .   A
C636       C637 0.029       .   A
C636       H643 0.023       .   A
C637       C638 0.029       .   A
C637       C642 0.024       .   A
C638       C639 0.029       .   A
C638       N641 0.029       .   A
C639       C640 0.029       .   A
C639       H645 0.023       .   A
C640       O644 0.027       .   A
N641       N646 0.028       .   A
C642       N659 0.024       .   A
O644       H658 0.022       .   A
N646       C647 0.034       .   A
C647       C648 0.034       .   A
C647       N651 0.032       .   A
C647       H657 0.024       .   A
C648       C649 0.034       .   A
C648       H654 0.023       .   A
C648       H656 0.023       .   A
C649       N650 0.032       .   A
C649       H655 0.023       .   A
N650       N651 0.032       .   A
N650       H653 0.022       .   A
N651       H652 0.022       .   A
C610       C611 0.029       .   A
C610       C615 0.029       .   A
C611       C612 0.029       .   A
C611       H618 0.023       .   A
C612       C613 0.029       .   A
C612       C617 0.024       .   A
C613       C614 0.029       .   A
C613       N616 0.029       .   A
C614       C615 0.029       .   A
C614       H620 0.023       .   A
C615       O619 0.027       .   A
N616       N621 0.028       .   A
C617       N634 0.024       .   A
O619       H633 0.022       .   A
N621       C622 0.034       .   A
C622       C623 0.034       .   A
C622       N626 0.032       .   A
C622       H632 0.024       .   A
C623       C624 0.034       .   A
C623       H629 0.023       .   A
C623       H631 0.023       .   A
C624       N625 0.032       .   A
C624       H630 0.023       .   A
N625       N626 0.032       .   A
N625       H628 0.022       .   A
N626       H627 0.022       .   A
C585       C586 0.029       .   A
C585       C590 0.029       .   A
C586       C587 0.029       .   A
C586       H593 0.023       .   A
C587       C588 0.029       .   A
C587       C592 0.024       .   A
C588       C589 0.029       .   A
C588       N591 0.029       .   A
C589       C590 0.029       .   A
C589       H595 0.023       .   A
C590       O594 0.027       .   A
N591       N596 0.028       .   A
C592       N609 0.024       .   A
O594       H608 0.022       .   A
N596       C597 0.034       .   A
C597       C598 0.034       .   A
C597       N601 0.032       .   A
C597       H607 0.024       .   A
C598       C599 0.034       .   A
C598       H604 0.023       .   A
C598       H606 0.023       .   A
C599       N600 0.032       .   A
C599       H605 0.023       .   A
N600       N601 0.032       .   A
N600       H603 0.022       .   A
N601       H602 0.022       .   A
C560       C561 0.029       .   A
C560       C565 0.029       .   A
C561       C562 0.029       .   A
C561       H568 0.023       .   A
C562       C563 0.029       .   A
C562       C567 0.024       .   A
C563       C564 0.029       .   A
C563       N566 0.029       .   A
C564       C565 0.029       .   A
C564       H570 0.023       .   A
C565       O569 0.027       .   A
N566       N571 0.028       .   A
C567       N584 0.024       .   A
O569       H583 0.022       .   A
N571       C572 0.034       .   A
C572       C573 0.034       .   A
C572       N576 0.032       .   A
C572       H582 0.024       .   A
C573       C574 0.034       .   A
C573       H579 0.023       .   A
C573       H581 0.023       .   A
C574       N575 0.032       .   A
C574       H580 0.023       .   A
N575       N576 0.032       .   A
N575       H578 0.022       .   A
N576       H577 0.022       .   A
C535       C536 0.029       .   A
C535       C540 0.029       .   A
C536       C537 0.029       .   A
C536       H543 0.023       .   A
C537       C538 0.029       .   A
C537       C542 0.024       .   A
C538       C539 0.029       .   A
C538       N541 0.029       .   A
C539       C540 0.029       .   A
C539       H545 0.023       .   A
C540       O544 0.027       .   A
N541       N546 0.028       .   A
C542       N559 0.024       .   A
O544       H558 0.022       .   A
N546       C547 0.034       .   A
C547       C548 0.034       .   A
C547       N551 0.032       .   A
C547       H557 0.024       .   A
C548       C549 0.034       .   A
C548       H554 0.023       .   A
C548       H556 0.023       .   A
C549       N550 0.032       .   A
C549       H555 0.023       .   A
N550       N551 0.032       .   A
N550       H553 0.022       .   A
N551       H552 0.022       .   A
C510       C511 0.029       .   A
C510       C515 0.029       .   A
C511       C512 0.029       .   A
C511       H518 0.023       .   A
C512       C513 0.029       .   A
C512       C517 0.024       .   A
C513       C514 0.029       .   A
C513       N516 0.029       .   A
C514       C515 0.029       .   A
C514       H520 0.023       .   A
C515       O519 0.027       .   A
N516       N521 0.028       .   A
C517       N534 0.024       .   A
O519       H533 0.022       .   A
N521       C522 0.034       .   A
C522       C523 0.034       .   A
C522       N526 0.032       .   A
C522       H532 0.024       .   A
C523       C524 0.034       .   A
C523       H529 0.023       .   A
C523       H531 0.023       .   A
C524       N525 0.032       .   A
C524       H530 0.023       .   A
N525       N526 0.032       .   A
N525       H528 0.022       .   A
N526       H527 0.022       .   A
C485       C486 0.029       .   A
C485       C490 0.029       .   A
C486       C487 0.029       .   A
C486       H493 0.023       .   A
C487       C488 0.029       .   A
C487       C492 0.024       .   A
C488       C489 0.029       .   A
C488       N491 0.029       .   A
C489       C490 0.029       .   A
C489       H495 0.023       .   A
C490       O494 0.027       .   A
N491       N496 0.028       .   A
C492       N509 0.024       .   A
O494       H508 0.022       .   A
N496       C497 0.034       .   A
C497       C498 0.034       .   A
C497       N501 0.032       .   A
C497       H507 0.024       .   A
C498       C499 0.034       .   A
C498       H504 0.023       .   A
C498       H506 0.023       .   A
C499       N500 0.032       .   A
C499       H505 0.023       .   A
N500       N501 0.032       .   A
N500       H503 0.022       .   A
N501       H502 0.022       .   A
C460       C461 0.029       .   A
C460       C465 0.029       .   A
C461       C462 0.029       .   A
C461       H468 0.023       .   A
C462       C463 0.029       .   A
C462       C467 0.024       .   A
C463       C464 0.029       .   A
C463       N466 0.029       .   A
C464       C465 0.029       .   A
C464       H470 0.023       .   A
C465       O469 0.027       .   A
N466       N471 0.028       .   A
C467       N484 0.024       .   A
O469       H483 0.022       .   A
N471       C472 0.034       .   A
C472       C473 0.034       .   A
C472       N476 0.032       .   A
C472       H482 0.024       .   A
C473       C474 0.034       .   A
C473       H479 0.023       .   A
C473       H481 0.023       .   A
C474       N475 0.032       .   A
C474       H480 0.023       .   A
N475       N476 0.032       .   A
N475       H478 0.022       .   A
N476       H477 0.022       .   A
C435       C436 0.029       .   A
C435       C440 0.029       .   A
C436       C437 0.029       .   A
C436       H443 0.023       .   A
C437       C438 0.029       .   A
C437       C442 0.024       .   A
C438       C439 0.029       .   A
C438       N441 0.029       .   A
C439       C440 0.029       .   A
C439       H445 0.023       .   A
C440       O444 0.027       .   A
N441       N446 0.028       .   A
C442       N459 0.024       .   A
O444       H458 0.022       .   A
N446       C447 0.034       .   A
C447       C448 0.034       .   A
C447       N451 0.032       .   A
C447       H457 0.024       .   A
C448       C449 0.034       .   A
C448       H454 0.023       .   A
C448       H456 0.023       .   A
C449       N450 0.032       .   A
C449       H455 0.023       .   A
N450       N451 0.032       .   A
N450       H453 0.022       .   A
N451       H452 0.022       .   A
C410       C411 0.029       .   A
C410       C415 0.029       .   A
C411       C412 0.029       .   A
C411       H418 0.023       .   A
C412       C413 0.029       .   A
C412       C417 0.024       .   A
C413       C414 0.029       .   A
C413       N416 0.029       .   A
C414       C415 0.029       .   A
C414       H420 0.023       .   A
C415       O419 0.027       .   A
N416       N421 0.028       .   A
C417       N434 0.024       .   A
O419       H433 0.022       .   A
N421       C422 0.034       .   A
C422       C423 0.034       .   A
C422       N426 0.032       .   A
C422       H432 0.024       .   A
C423       C424 0.034       .   A
C423       H429 0.023       .   A
C423       H431 0.023       .   A
C424       N425 0.032       .   A
C424       H430 0.023       .   A
N425       N426 0.032       .   A
N425       H428 0.022       .   A
N426       H427 0.022       .   A
C385       C386 0.029       .   A
C385       C390 0.029       .   A
C386       C387 0.029       .   A
C386       H393 0.023       .   A
C387       C388 0.029       .   A
C387       C392 0.024       .   A
C388       C389 0.029       .   A
C388       N391 0.029       .   A
C389       C390 0.029       .   A
C389       H395 0.023       .   A
C390       O394 0.027       .   A
N391       N396 0.028       .   A
C392       N409 0.024       .   A
O394       H408 0.022       .   A
N396       C397 0.034       .   A
C397       C398 0.034       .   A
C397       N401 0.032       .   A
C397       H407 0.024       .   A
C398       C399 0.034       .   A
C398       H404 0.023       .   A
C398       H406 0.023       .   A
C399       N400 0.032       .   A
C399       H405 0.023       .   A
N400       N401 0.032       .   A
N400       H403 0.022       .   A
N401       H402 0.022       .   A
C360       C361 0.029       .   A
C360       C365 0.029       .   A
C361       C362 0.029       .   A
C361       H368 0.023       .   A
C362       C363 0.029       .   A
C362       C367 0.024       .   A
C363       C364 0.029       .   A
C363       N366 0.029       .   A
C364       C365 0.029       .   A
C364       H370 0.023       .   A
C365       O369 0.027       .   A
N366       N371 0.028       .   A
C367       N384 0.024       .   A
O369       H383 0.022       .   A
N371       C372 0.034       .   A
C372       C373 0.034       .   A
C372       N376 0.032       .   A
C372       H382 0.024       .   A
C373       C374 0.034       .   A
C373       H379 0.023       .   A
C373       H381 0.023       .   A
C374       N375 0.032       .   A
C374       H380 0.023       .   A
N375       N376 0.032       .   A
N375       H378 0.022       .   A
N376       H377 0.022       .   A
C335       C336 0.029       .   A
C335       C340 0.029       .   A
C336       C337 0.029       .   A
C336       H343 0.023       .   A
C337       C338 0.029       .   A
C337       C342 0.024       .   A
C338       C339 0.029       .   A
C338       N341 0.029       .   A
C339       C340 0.029       .   A
C339       H345 0.023       .   A
C340       O344 0.027       .   A
N341       N346 0.028       .   A
C342       N359 0.024       .   A
O344       H358 0.022       .   A
N346       C347 0.034       .   A
C347       C348 0.034       .   A
C347       N351 0.032       .   A
C347       H357 0.024       .   A
C348       C349 0.034       .   A
C348       H354 0.023       .   A
C348       H356 0.023       .   A
C349       N350 0.032       .   A
C349       H355 0.023       .   A
N350       N351 0.032       .   A
N350       H353 0.022       .   A
N351       H352 0.022       .   A
C310       C311 0.029       .   A
C310       C315 0.029       .   A
C311       C312 0.029       .   A
C311       H318 0.023       .   A
C312       C313 0.029       .   A
C312       C317 0.024       .   A
C313       C314 0.029       .   A
C313       N316 0.029       .   A
C314       C315 0.029       .   A
C314       H320 0.023       .   A
C315       O319 0.027       .   A
N316       N321 0.028       .   A
C317       N334 0.024       .   A
O319       H333 0.022       .   A
N321       C322 0.034       .   A
C322       C323 0.034       .   A
C322       N326 0.032       .   A
C322       H332 0.024       .   A
C323       C324 0.034       .   A
C323       H329 0.023       .   A
C323       H331 0.023       .   A
C324       N325 0.032       .   A
C324       H330 0.023       .   A
N325       N326 0.032       .   A
N325       H328 0.022       .   A
N326       H327 0.022       .   A
C285       C286 0.029       .   A
C285       C290 0.029       .   A
C286       C287 0.029       .   A
C286       H293 0.023       .   A
C287       C288 0.029       .   A
C287       C292 0.024       .   A
C288       C289 0.029       .   A
C288       N291 0.029       .   A
C289       C290 0.029       .   A
C289       H295 0.023       .   A
C290       O294 0.027       .   A
N291       N296 0.028       .   A
C292       N309 0.024       .   A
O294       H308 0.022       .   A
N296       C297 0.034       .   A
C297       C298 0.034       .   A
C297       N301 0.032       .   A
C297       H307 0.024       .   A
C298       C299 0.034       .   A
C298       H304 0.023       .   A
C298       H306 0.023       .   A
C299       N300 0.032       .   A
C299       H305 0.023       .   A
N300       N301 0.032       .   A
N300       H303 0.022       .   A
N301       H302 0.022       .   A
C260       C261 0.029       .   A
C260       C265 0.029       .   A
C261       C262 0.029       .   A
C261       H268 0.023       .   A
C262       C263 0.029       .   A
C262       C267 0.024       .   A
C263       C264 0.029       .   A
C263       N266 0.029       .   A
C264       C265 0.029       .   A
C264       H270 0.023       .   A
C265       O269 0.027       .   A
N266       N271 0.028       .   A
C267       N284 0.024       .   A
O269       H283 0.022       .   A
N271       C272 0.034       .   A
C272       C273 0.034       .   A
C272       N276 0.032       .   A
C272       H282 0.024       .   A
C273       C274 0.034       .   A
C273       H279 0.023       .   A
C273       H281 0.023       .   A
C274       N275 0.032       .   A
C274       H280 0.023       .   A
N275       N276 0.032       .   A
N275       H278 0.022       .   A
N276       H277 0.022       .   A
C235       C236 0.029       .   A
C235       C240 0.029       .   A
C236       C237 0.029       .   A
C236       H243 0.023       .   A
C237       C238 0.029       .   A
C237       C242 0.024       .   A
C238       C239 0.029       .   A
C238       N241 0.029       .   A
C239       C240 0.029       .   A
C239       H245 0.023       .   A
C240       O244 0.027       .   A
N241       N246 0.028       .   A
C242       N259 0.024       .   A
O244       H258 0.022       .   A
N246       C247 0.034       .   A
C247       C248 0.034       .   A
C247       N251 0.032       .   A
C247       H257 0.024       .   A
C248       C249 0.034       .   A
C248       H254 0.023       .   A
C248       H256 0.023       .   A
C249       N250 0.032       .   A
C249       H255 0.023       .   A
N250       N251 0.032       .   A
N250       H253 0.022       .   A
N251       H252 0.022       .   A
C210       C211 0.029       .   A
C210       C215 0.029       .   A
C211       C212 0.029       .   A
C211       H218 0.023       .   A
C212       C213 0.029       .   A
C212       C217 0.024       .   A
C213       C214 0.029       .   A
C213       N216 0.029       .   A
C214       C215 0.029       .   A
C214       H220 0.023       .   A
C215       O219 0.027       .   A
N216       N221 0.028       .   A
C217       N234 0.024       .   A
O219       H233 0.022       .   A
N221       C222 0.034       .   A
C222       C223 0.034       .   A
C222       N226 0.032       .   A
C222       H232 0.024       .   A
C223       C224 0.034       .   A
C223       H229 0.023       .   A
C223       H231 0.023       .   A
C224       N225 0.032       .   A
C224       H230 0.023       .   A
N225       N226 0.032       .   A
N225       H228 0.022       .   A
N226       H227 0.022       .   A
C185       C186 0.029       .   A
C185       C190 0.029       .   A
C186       C187 0.029       .   A
C186       H193 0.023       .   A
C187       C188 0.029       .   A
C187       C192 0.024       .   A
C188       C189 0.029       .   A
C188       N191 0.029       .   A
C189       C190 0.029       .   A
C189       H195 0.023       .   A
C190       O194 0.027       .   A
N191       N196 0.028       .   A
C192       N209 0.024       .   A
O194       H208 0.022       .   A
N196       C197 0.034       .   A
C197       C198 0.034       .   A
C197       N201 0.032       .   A
C197       H207 0.024       .   A
C198       C199 0.034       .   A
C198       H204 0.023       .   A
C198       H206 0.023       .   A
C199       N200 0.032       .   A
C199       H205 0.023       .   A
N200       N201 0.032       .   A
N200       H203 0.022       .   A
N201       H202 0.022       .   A
