data_pcu_v1-6c_Zn_1_Ch_1-24_fer_tobacco
_audit_creation_date              2021-04-07
_audit_creation_method            'tobacco_3.0'
_symmetry_space_group_name_H-M    'P1'
_symmetry_Int_Tables_number       1
_symmetry_cell_setting            triclinic
loop_
_symmetry_equiv_pos_as_xyz
  x,y,z
_cell_length_a                    42.374159228822094
_cell_length_b                    42.374159228822094
_cell_length_c                    42.374159228822094
_cell_angle_alpha                 90.0
_cell_angle_beta                  90.0
_cell_angle_gamma                 90.0
loop_
_atom_site_label
_atom_site_type_symbol
_atom_site_fract_x
_atom_site_fract_y
_atom_site_fract_z
_atom_site_charge
Zn1       Zn   -0.0264595220   -0.0264595220    0.0264595220          1.4972
Zn2       Zn    0.0264595220    0.0264595220    0.0264595220          1.4936
Zn3       Zn    0.0264595220   -0.0264595220   -0.0264595220          1.4911
Zn4       Zn   -0.0264595220    0.0264595220   -0.0264595220          1.4948
O5         O    0.0000000000    0.0000000000    0.0000000000         -2.2719
O6         O   -0.0194458136   -0.0194458136    0.0707176273         -1.1782
O7         O    0.0707176273    0.0194458136    0.0194458136         -1.1764
O8         O    0.0194458136   -0.0707176273   -0.0194458136         -1.1715
O9         O    0.0194458136    0.0194458136    0.0707176273         -1.1783
O10        O   -0.0194458136   -0.0707176273    0.0194458136         -1.1743
O11        O    0.0707176273   -0.0194458136   -0.0194458136         -1.1802
O12        O   -0.0194458136    0.0194458136   -0.0707176273         -1.1741
O13        O    0.0194458136    0.0707176273    0.0194458136         -1.1816
O14        O    0.0194458136   -0.0194458136   -0.0707176273         -1.1755
O15        O   -0.0194458136    0.0707176273   -0.0194458136         -1.1802
O16        O   -0.0707176273    0.0194458136   -0.0194458136         -1.1793
O17        O   -0.0707176273   -0.0194458136    0.0194458136         -1.1772
C18        C   -0.0000000000   -0.0000000000    0.0845515301          0.3407
C19        C    0.0845515301   -0.0000000000   -0.0000000000          0.3456
C20        C   -0.0000000000   -0.0845515301    0.0000000000          0.3352
C21        C    0.0000000000    0.0000000000   -0.0845515301           0.339
C22        C    0.0000000000    0.0845515301   -0.0000000000          0.3503
C23        C   -0.0845515301    0.0000000000    0.0000000000          0.3408
Zn24      Zn    1.0264595220    0.0264595220    0.4735404780          1.4972
Zn25      Zn    0.9735404780    0.0264595220    0.5264595220          1.4936
Zn26      Zn    0.9735404780   -0.0264595220    0.4735404780          1.4911
Zn27      Zn    1.0264595220   -0.0264595220    0.5264595220          1.4948
O28        O    1.0000000000    0.0000000000    0.5000000000         -2.2719
O29        O    1.0194458136    0.0707176273    0.4805541864         -1.1782
O30        O    0.9292823727    0.0194458136    0.5194458136         -1.1764
O31        O    0.9805541864   -0.0194458136    0.4292823727         -1.1715
O32        O    0.9805541864    0.0707176273    0.5194458136         -1.1783
O33        O    1.0194458136    0.0194458136    0.4292823727         -1.1743
O34        O    0.9292823727   -0.0194458136    0.4805541864         -1.1802
O35        O    1.0194458136   -0.0707176273    0.5194458136         -1.1741
O36        O    0.9805541864    0.0194458136    0.5707176273         -1.1816
O37        O    0.9805541864   -0.0707176273    0.4805541864         -1.1755
O38        O    1.0194458136   -0.0194458136    0.5707176273         -1.1802
O39        O    1.0707176273   -0.0194458136    0.5194458136         -1.1793
O40        O    1.0707176273    0.0194458136    0.4805541864         -1.1772
C41        C    1.0000000000    0.0845515301    0.5000000000          0.3407
C42        C    0.9154484699    0.0000000000    0.5000000000          0.3456
C43        C    1.0000000000    0.0000000000    0.4154484699          0.3352
C44        C    1.0000000000   -0.0845515301    0.5000000000           0.339
C45        C    1.0000000000    0.0000000000    0.5845515301          0.3503
C46        C    1.0845515301    0.0000000000    0.5000000000          0.3408
Zn47      Zn    1.0264595220    0.4735404780   -0.0264595220          1.4972
Zn48      Zn    0.9735404780    0.4735404780    0.0264595220          1.4936
Zn49      Zn    1.0264595220    0.5264595220    0.0264595220          1.4911
Zn50      Zn    0.9735404780    0.5264595220   -0.0264595220          1.4948
O51        O    1.0000000000    0.5000000000    0.0000000000         -2.2719
O52        O    1.0194458136    0.4292823727   -0.0194458136         -1.1782
O53        O    0.9805541864    0.4805541864    0.0707176273         -1.1764
O54        O    1.0707176273    0.5194458136    0.0194458136         -1.1715
O55        O    0.9805541864    0.4292823727    0.0194458136         -1.1783
O56        O    1.0707176273    0.4805541864   -0.0194458136         -1.1743
O57        O    1.0194458136    0.5194458136    0.0707176273         -1.1802
O58        O    0.9805541864    0.5707176273   -0.0194458136         -1.1741
O59        O    0.9292823727    0.4805541864    0.0194458136         -1.1816
O60        O    1.0194458136    0.5707176273    0.0194458136         -1.1755
O61        O    0.9292823727    0.5194458136   -0.0194458136         -1.1802
O62        O    0.9805541864    0.5194458136   -0.0707176273         -1.1793
O63        O    1.0194458136    0.4805541864   -0.0707176273         -1.1772
C64        C    1.0000000000    0.4154484699    0.0000000000          0.3407
C65        C    1.0000000000    0.5000000000    0.0845515301          0.3456
C66        C    1.0845515301    0.5000000000    0.0000000000          0.3352
C67        C    1.0000000000    0.5845515301    0.0000000000           0.339
C68        C    0.9154484699    0.5000000000    0.0000000000          0.3503
C69        C    1.0000000000    0.5000000000   -0.0845515301          0.3408
Zn70      Zn    0.9735404780    0.4735404780    0.5264595220          1.4972
Zn71      Zn    1.0264595220    0.4735404780    0.4735404780          1.4936
Zn72      Zn    0.9735404780    0.5264595220    0.4735404780          1.4911
Zn73      Zn    1.0264595220    0.5264595220    0.5264595220          1.4948
O74        O    1.0000000000    0.5000000000    0.5000000000         -2.2719
O75        O    0.9805541864    0.4292823727    0.5194458136         -1.1782
O76        O    1.0194458136    0.4805541864    0.4292823727         -1.1764
O77        O    0.9292823727    0.5194458136    0.4805541864         -1.1715
O78        O    1.0194458136    0.4292823727    0.4805541864         -1.1783
O79        O    0.9292823727    0.4805541864    0.5194458136         -1.1743
O80        O    0.9805541864    0.5194458136    0.4292823727         -1.1802
O81        O    1.0194458136    0.5707176273    0.5194458136         -1.1741
O82        O    1.0707176273    0.4805541864    0.4805541864         -1.1816
O83        O    0.9805541864    0.5707176273    0.4805541864         -1.1755
O84        O    1.0707176273    0.5194458136    0.5194458136         -1.1802
O85        O    1.0194458136    0.5194458136    0.5707176273         -1.1793
O86        O    0.9805541864    0.4805541864    0.5707176273         -1.1772
C87        C    1.0000000000    0.4154484699    0.5000000000          0.3407
C88        C    1.0000000000    0.5000000000    0.4154484699          0.3456
C89        C    0.9154484699    0.5000000000    0.5000000000          0.3352
C90        C    1.0000000000    0.5845515301    0.5000000000           0.339
C91        C    1.0845515301    0.5000000000    0.5000000000          0.3503
C92        C    1.0000000000    0.5000000000    0.5845515301          0.3408
Zn93      Zn    0.4735404780    0.9735404780   -0.0264595220          1.4972
Zn94      Zn    0.4735404780    1.0264595220    0.0264595220          1.4936
Zn95      Zn    0.5264595220    0.9735404780    0.0264595220          1.4911
Zn96      Zn    0.5264595220    1.0264595220   -0.0264595220          1.4948
O97        O    0.5000000000    1.0000000000    0.0000000000         -2.2719
O98        O    0.4292823727    0.9805541864   -0.0194458136         -1.1782
O99        O    0.4805541864    1.0194458136    0.0707176273         -1.1764
O100       O    0.5194458136    0.9292823727    0.0194458136         -1.1715
O101       O    0.4292823727    1.0194458136    0.0194458136         -1.1783
O102       O    0.4805541864    0.9292823727   -0.0194458136         -1.1743
O103       O    0.5194458136    0.9805541864    0.0707176273         -1.1802
O104       O    0.5707176273    1.0194458136   -0.0194458136         -1.1741
O105       O    0.4805541864    1.0707176273    0.0194458136         -1.1816
O106       O    0.5707176273    0.9805541864    0.0194458136         -1.1755
O107       O    0.5194458136    1.0707176273   -0.0194458136         -1.1802
O108       O    0.5194458136    1.0194458136   -0.0707176273         -1.1793
O109       O    0.4805541864    0.9805541864   -0.0707176273         -1.1772
C110       C    0.4154484699    1.0000000000    0.0000000000          0.3407
C111       C    0.5000000000    1.0000000000    0.0845515301          0.3456
C112       C    0.5000000000    0.9154484699    0.0000000000          0.3352
C113       C    0.5845515301    1.0000000000    0.0000000000           0.339
C114       C    0.5000000000    1.0845515301    0.0000000000          0.3503
C115       C    0.5000000000    1.0000000000   -0.0845515301          0.3408
Zn116     Zn    0.4735404780    1.0264595220    0.5264595220          1.4972
Zn117     Zn    0.4735404780    0.9735404780    0.4735404780          1.4936
Zn118     Zn    0.5264595220    1.0264595220    0.4735404780          1.4911
Zn119     Zn    0.5264595220    0.9735404780    0.5264595220          1.4948
O120       O    0.5000000000    1.0000000000    0.5000000000         -2.2719
O121       O    0.4292823727    1.0194458136    0.5194458136         -1.1782
O122       O    0.4805541864    0.9805541864    0.4292823727         -1.1764
O123       O    0.5194458136    1.0707176273    0.4805541864         -1.1715
O124       O    0.4292823727    0.9805541864    0.4805541864         -1.1783
O125       O    0.4805541864    1.0707176273    0.5194458136         -1.1743
O126       O    0.5194458136    1.0194458136    0.4292823727         -1.1802
O127       O    0.5707176273    0.9805541864    0.5194458136         -1.1741
O128       O    0.4805541864    0.9292823727    0.4805541864         -1.1816
O129       O    0.5707176273    1.0194458136    0.4805541864         -1.1755
O130       O    0.5194458136    0.9292823727    0.5194458136         -1.1802
O131       O    0.5194458136    0.9805541864    0.5707176273         -1.1793
O132       O    0.4805541864    1.0194458136    0.5707176273         -1.1772
C133       C    0.4154484699    1.0000000000    0.5000000000          0.3407
C134       C    0.5000000000    1.0000000000    0.4154484699          0.3456
C135       C    0.5000000000    1.0845515301    0.5000000000          0.3352
C136       C    0.5845515301    1.0000000000    0.5000000000           0.339
C137       C    0.5000000000    0.9154484699    0.5000000000          0.3503
C138       C    0.5000000000    1.0000000000    0.5845515301          0.3408
Zn139     Zn    0.4735404780    0.5264595220   -0.0264595220          1.4972
Zn140     Zn    0.4735404780    0.4735404780    0.0264595220          1.4936
Zn141     Zn    0.5264595220    0.4735404780   -0.0264595220          1.4911
Zn142     Zn    0.5264595220    0.5264595220    0.0264595220          1.4948
O143       O    0.5000000000    0.5000000000    0.0000000000         -2.2719
O144       O    0.4292823727    0.5194458136   -0.0194458136         -1.1782
O145       O    0.4805541864    0.4292823727    0.0194458136         -1.1764
O146       O    0.5194458136    0.4805541864   -0.0707176273         -1.1715
O147       O    0.4292823727    0.4805541864    0.0194458136         -1.1783
O148       O    0.4805541864    0.5194458136   -0.0707176273         -1.1743
O149       O    0.5194458136    0.4292823727   -0.0194458136         -1.1802
O150       O    0.5707176273    0.5194458136    0.0194458136         -1.1741
O151       O    0.4805541864    0.4805541864    0.0707176273         -1.1816
O152       O    0.5707176273    0.4805541864   -0.0194458136         -1.1755
O153       O    0.5194458136    0.5194458136    0.0707176273         -1.1802
O154       O    0.5194458136    0.5707176273    0.0194458136         -1.1793
O155       O    0.4805541864    0.5707176273   -0.0194458136         -1.1772
C156       C    0.4154484699    0.5000000000    0.0000000000          0.3407
C157       C    0.5000000000    0.4154484699    0.0000000000          0.3456
C158       C    0.5000000000    0.5000000000   -0.0845515301          0.3352
C159       C    0.5845515301    0.5000000000    0.0000000000           0.339
C160       C    0.5000000000    0.5000000000    0.0845515301          0.3503
C161       C    0.5000000000    0.5845515301    0.0000000000          0.3408
Zn162     Zn    0.5264595220    0.5264595220    0.5264595220          1.4972
Zn163     Zn    0.4735404780    0.5264595220    0.4735404780          1.4936
Zn164     Zn    0.5264595220    0.4735404780    0.4735404780          1.4911
Zn165     Zn    0.4735404780    0.4735404780    0.5264595220          1.4948
O166       O    0.5000000000    0.5000000000    0.5000000000         -2.2719
O167       O    0.5194458136    0.5707176273    0.5194458136         -1.1782
O168       O    0.4805541864    0.5194458136    0.4292823727         -1.1764
O169       O    0.5707176273    0.4805541864    0.4805541864         -1.1715
O170       O    0.4805541864    0.5707176273    0.4805541864         -1.1783
O171       O    0.5707176273    0.5194458136    0.5194458136         -1.1743
O172       O    0.5194458136    0.4805541864    0.4292823727         -1.1802
O173       O    0.4805541864    0.4292823727    0.5194458136         -1.1741
O174       O    0.4292823727    0.5194458136    0.4805541864         -1.1816
O175       O    0.5194458136    0.4292823727    0.4805541864         -1.1755
O176       O    0.4292823727    0.4805541864    0.5194458136         -1.1802
O177       O    0.4805541864    0.4805541864    0.5707176273         -1.1793
O178       O    0.5194458136    0.5194458136    0.5707176273         -1.1772
C179       C    0.5000000000    0.5845515301    0.5000000000          0.3407
C180       C    0.5000000000    0.5000000000    0.4154484699          0.3456
C181       C    0.5845515301    0.5000000000    0.5000000000          0.3352
C182       C    0.5000000000    0.4154484699    0.5000000000           0.339
C183       C    0.4154484699    0.5000000000    0.5000000000          0.3503
C184       C    0.5000000000    0.5000000000    0.5845515301          0.3408
C1151      C    0.5000000000    0.5000000000   -0.1208944341          0.5607
C1152      C    0.5070826745    0.4726563404   -0.1351974185         -0.4308
C1153      C    0.5081020567    0.4707696095   -0.1667622004         -0.4306
C1154      C    0.5013820205    0.4960233523   -0.1848879233          0.5617
C1155      C    0.4984644262    0.5236486272   -0.1698032013          0.5499
C1156      C    0.4972620612    0.5257277871   -0.1386718436          0.5497
C1157      C    0.4971595240    0.4942855149   -0.2165412958          0.5659
H1158      H    0.5116728032    0.4475087433   -0.1769735806         -0.4215
H1159      H    0.5103315698    0.4512226950   -0.1214331338         -0.4224
H1160      H    0.4932922248    0.5488211639   -0.1281973910           0.541
H1161      H    0.4966543893    0.5455989701   -0.1826652178          0.5401
C1162      C    0.5125275684    0.4725167519   -0.2337611277          0.5651
C1163      C    0.5112201940    0.4720165299   -0.2653738754          0.5664
C1164      C    0.4931181415    0.4921979793   -0.2821153796         -0.4298
C1165      C    0.4749204563    0.5100662982   -0.2636740055         -0.4249
C1166      C    0.4768694390    0.5133688373   -0.2325111891         -0.4281
C1167      C    0.4931495257    0.4956301965   -0.3144518037         -0.4316
H1168      H    0.5270527536    0.4551529856   -0.2762936992          0.5628
H1169      H    0.5289110568    0.4561558573   -0.2226888687          0.5608
C1170      C    0.4533350484    0.5387938173   -0.2202223954         -0.4228
H1171      H    0.4564730158    0.5229521443   -0.2740249316         -0.4171
C1172      C    0.4338575396    0.5332281476   -0.1899345470         -0.4049
H1173      H    0.4342316517    0.5086159769   -0.1825011088         -0.3926
H1174      H    0.4426467029    0.5482176059   -0.1708707447         -0.4194
H1175      H    0.4094146304    0.5403603034   -0.1938560797         -0.3896
H1176      H    0.4350308823    0.5432765764   -0.2377970192         -0.4109
H1177      H    0.4656198695    0.5614183318   -0.2188121355          0.5561
C1178      C    0.5095236038    0.4743068761   -0.3317998928         -0.4334
C1179      C    0.5127601197    0.4761757765   -0.3630138306          0.5632
C1180      C    0.5000000000    0.5000000000   -0.3791055659          0.5609
C1181      C    0.4835489031    0.5210994671   -0.3629241480          0.5629
C1182      C    0.4794059723    0.5197908801   -0.3316781175         -0.4333
H1183      H    0.5264423960    0.4579869961   -0.3748284895          0.5619
H1184      H    0.5209237067    0.4539292444   -0.3215719286         -0.4318
C1185      C    0.4593106713    0.5484518473   -0.3211585201         -0.4323
H1186      H    0.4731087851    0.5402372440   -0.3763624714          0.5612
C1187      C    0.4759660786    0.5722591540   -0.2990489736          0.5426
H1188      H    0.4829751538    0.5933455352   -0.3120394435          0.5264
H1189      H    0.4970468583    0.5622830903   -0.2881170016          0.5313
H1190      H    0.4597418602    0.5794914062   -0.2803387145          0.5515
H1191      H    0.4366200953    0.5405016495   -0.3118084800         -0.4107
H1192      H    0.4512692229    0.5627111427   -0.3410347154         -0.4333
C1109      C    0.5000000000    0.5000000000    0.1208944341          0.5607
C1110      C    0.4732676338    0.4908774675    0.1351974185         -0.4308
C1111      C    0.4711312337    0.4906912199    0.1667622004         -0.4306
C1112      C    0.4959186837    0.4989672540    0.1848879233          0.5617
C1113      C    0.5205956249    0.5117233012    0.1698032013          0.5499
C1114      C    0.5229933732    0.5118625514    0.1386718436          0.5497
C1115      C    0.4967894615    0.4944849219    0.2165412958          0.5659
H1116      H    0.4497401998    0.4808809297    0.1769735806         -0.4215
H1117      H    0.4535796836    0.4818032685    0.1214331338         -0.4224
H1118      H    0.5444640049    0.5212474129    0.1281973910           0.541
H1119      H    0.5399238018    0.5222833848    0.1826652178          0.5401
C1120      C    0.4701565771    0.4953482258    0.2337611277          0.5651
C1121      C    0.4704577998    0.4939812164    0.2653738754          0.5664
C1122      C    0.4972685692    0.4899615345    0.2821153796         -0.4298
C1123      C    0.5222000272    0.4845898518    0.2636740055         -0.4249
C1124      C    0.5238864156    0.4880338890    0.2325111891         -0.4281
C1125      C    0.5001178661    0.4918753284    0.3144518037         -0.4316
H1126      H    0.4476662450    0.4979301533    0.2762936992          0.5628
H1127      H    0.4474818420    0.5000337308    0.2226888687          0.5608
C1128      C    0.5580641033    0.4823608992    0.2202223954         -0.4228
H1129      H    0.5431075240    0.4762694151    0.2740249316         -0.4171
C1130      C    0.5641275564    0.4630325634    0.1899345470         -0.4049
H1131      H    0.5433659461    0.4498093095    0.1825011088         -0.3926
H1132      H    0.5718129290    0.4786167957    0.1708707447         -0.4194
H1133      H    0.5835268907    0.4465404656    0.1938560797         -0.3896
H1134      H    0.5718746222    0.4695387623    0.2377970192         -0.4109
H1135      H    0.5702037343    0.5050636488    0.2188121355          0.5561
C1136      C    0.4733037329    0.4938238383    0.3317998928         -0.4334
C1137      C    0.4730846676    0.4975547677    0.3630138306          0.5632
C1138      C    0.5000000000    0.5000000000    0.3791055659          0.5609
C1139      C    0.5266695301    0.4978640543    0.3629241480          0.5629
C1140      C    0.5278550562    0.4936842453    0.3316781175         -0.4333
H1141      H    0.4503688574    0.4989789805    0.3748284895          0.5619
H1142      H    0.4500149179    0.4921382197    0.3215719286         -0.4318
C1143      C    0.5628440496    0.4926632157    0.3211585201         -0.4323
H1144      H    0.5483948764    0.4996695731    0.3763624714          0.5612
C1145      C    0.5735678905    0.5196667280    0.2990489736          0.5426
H1146      H    0.5873243356    0.5371173104    0.3120394435          0.5264
H1147      H    0.5536423867    0.5317867698    0.2881170016          0.5313
H1148      H    0.5885308735    0.5100938560    0.2803387145          0.5515
H1149      H    0.5686830247    0.4693399600    0.3118084800         -0.4107
H1150      H    0.5791757598    0.4937891121    0.3410347154         -0.4333
C1067      C    0.5000000000    0.8791055659    0.5000000000          0.5607
C1068      C    0.5077790274    0.8648025815    0.4728462391         -0.4308
C1069      C    0.5078585791    0.8332377996    0.4707032120         -0.4306
C1070      C    0.5008280761    0.8151120767    0.4958722891          0.5617
C1071      C    0.4893176192    0.8301967987    0.5211542500          0.5499
C1072      C    0.4892980304    0.8613281564    0.5235559586          0.5497
C1073      C    0.5053482331    0.7834587042    0.4965186142          0.5659
H1074      H    0.5165906877    0.8230264194    0.4488498734         -0.4215
H1075      H    0.5158608303    0.8785668662    0.4527305502         -0.4224
H1076      H    0.4809947887    0.8718026090    0.5454675954           0.541
H1077      H    0.4797338491    0.8173347822    0.5409846595          0.5401
C1078      C    0.5031587887    0.7662388723    0.4699618418          0.5651
C1079      C    0.5045391107    0.7346261246    0.4701945672          0.5664
C1080      C    0.5098898760    0.7178846204    0.4967717099         -0.4298
C1081      C    0.5164973093    0.7363259945    0.5214045009         -0.4249
C1082      C    0.5131415901    0.7674888109    0.5232604229         -0.4281
C1083      C    0.5081204507    0.6855481963    0.4997128379         -0.4316
H1084      H    0.4994592945    0.7237063008    0.4476281200          0.5628
H1085      H    0.4973491412    0.7773111313    0.4475487750          0.5608
C1086      C    0.5205107293    0.7797776046    0.5571129403         -0.4228
H1087      H    0.5258493044    0.7259750684    0.5418713833         -0.4171
C1088      C    0.5401172141    0.8100654530    0.5622056588         -0.4049
H1089      H    0.5522894124    0.8174988912    0.5408108815         -0.3926
H1090      H    0.5249353347    0.8291292553    0.5706581014         -0.4194
H1091      H    0.5575555601    0.8061439203    0.5807590291         -0.3896
H1092      H    0.5340051633    0.7622029808    0.5702673266         -0.4109
H1093      H    0.4984411489    0.7811878645    0.5703688484          0.5561
C1094      C    0.5048381164    0.6682001072    0.4730291217         -0.4334
C1095      C    0.5011009057    0.6369861694    0.4729962542          0.5632
C1096      C    0.5000000000    0.6208944341    0.5000000000          0.5609
C1097      C    0.5034623311    0.6370758520    0.5265299522          0.5629
C1098      C    0.5076960259    0.6683218825    0.5275057103         -0.4333
H1099      H    0.4985464514    0.6251715105    0.4503796413          0.5619
H1100      H    0.5053610746    0.6784280714    0.4496852417         -0.4318
C1101      C    0.5104594152    0.6788414799    0.5624003494         -0.4323
H1102      H    0.5027417083    0.6236375286    0.5483182810          0.5612
C1103      C    0.4840238616    0.7009510264    0.5744565491          0.5426
H1104      H    0.4672804945    0.6879605565    0.5890655280          0.5264
H1105      H    0.4709259185    0.7118829984    0.5551597876          0.5313
H1106      H    0.4943304992    0.7196612855    0.5889238902          0.5515
H1107      H    0.5340446697    0.6881915200    0.5670697875         -0.4107
H1108      H    0.5101487859    0.6589652846    0.5787678755         -0.4333
C1025      C    0.5000000000    1.1208944341    0.5000000000          0.5607
C1026      C    0.5267360825    1.1351974185    0.4908883650         -0.4308
C1027      C    0.5288725584    1.1667622004    0.4907029882         -0.4306
C1028      C    0.5040817370    1.1848879233    0.4989689177          0.5617
C1029      C    0.4793995981    1.1698032013    0.5117149049          0.5499
C1030      C    0.4770017933    1.1386718436    0.5118531778          0.5497
C1031      C    0.5032127863    1.2165412958    0.4944862310          0.5659
H1032      H    0.5502675894    1.1769735806    0.4809014184         -0.4215
H1033      H    0.5464277300    1.1214331338    0.4818221920         -0.4224
H1034      H    0.4555273378    1.1281973910    0.5212292866           0.541
H1035      H    0.4600671183    1.1826652178    0.5222671091          0.5401
C1036      C    0.5298453166    1.2337611277    0.4953603911          0.5651
C1037      C    0.5295446512    1.2653738754    0.4939932590          0.5664
C1038      C    0.5027355225    1.2821153796    0.4899626487         -0.4298
C1039      C    0.4778062562    1.2636740055    0.4845808038         -0.4249
C1040      C    0.4761184640    1.2325111891    0.4880241533         -0.4281
C1041      C    0.4998854457    1.3144518037    0.4918752810         -0.4316
H1042      H    0.5523345944    1.2762936992    0.4979514860          0.5628
H1043      H    0.5525181399    1.2226888687    0.5000551384          0.5608
C1044      C    0.4419430916    1.2202223954    0.4823372323         -0.4228
H1045      H    0.4569021528    1.2740249316    0.4762518455         -0.4171
C1046      C    0.4358875178    1.1899345470    0.4630064265         -0.4049
H1047      H    0.4566545165    1.1825011088    0.4497916366         -0.3926
H1048      H    0.4281957932    1.1708707447    0.4785875248         -0.4194
H1049      H    0.4164949076    1.1938560797    0.4465064225         -0.3896
H1050      H    0.4281378005    1.2377970192    0.4695094670         -0.4109
H1051      H    0.4297942075    1.2188121355    0.5050350317          0.5561
C1052      C    0.5266987824    1.3317998928    0.4938347209         -0.4334
C1053      C    0.5269163269    1.3630138306    0.4975657393          0.5632
C1054      C    0.5000000000    1.3791055659    0.5000000000          0.5609
C1055      C    0.4733313427    1.3629241480    0.4978531834          0.5629
C1056      C    0.4721475205    1.3316781175    0.4936728914         -0.4333
H1057      H    0.5496315547    1.3748284895    0.4989992114          0.5619
H1058      H    0.5499882826    1.3215719286    0.4921585955         -0.4318
C1059      C    0.4371589463    1.3211585201    0.4926375995         -0.4323
H1060      H    0.4516052623    1.3763624714    0.4996498462          0.5612
C1061      C    0.4264240990    1.2990489736    0.5196367383          0.5426
H1062      H    0.4126605417    1.3120394435    0.5370817118          0.5264
H1063      H    0.4463446607    1.2881170016    0.5317649013          0.5313
H1064      H    0.4114650194    1.2803387145    0.5100577679          0.5515
H1065      H    0.4313294788    1.3118084800    0.4693119657         -0.4107
H1066      H    0.4208267785    1.3410347154    0.4937568387         -0.4333
C983       C    0.5000000000    0.6208944341    0.0000000000          0.5607
C984       C    0.4976415856    0.6351974185    0.0281474312         -0.4308
C985       C    0.4969558179    0.6667622004    0.0301793308         -0.4306
C986       C    0.4993101044    0.6848879233    0.0041530412          0.5617
C987       C    0.4975157756    0.6698032013   -0.0235678634          0.5499
C988       C    0.4983493635    0.6386718436   -0.0258203551          0.5497
C989       C    0.5037656055    0.7165412958    0.0051520733          0.5659
H990       H    0.4973686099    0.6769735806    0.0537090509         -0.4215
H991       H    0.4980627130    0.6214331338    0.0498218199         -0.4224
H992       H    0.4983582310    0.6281973910   -0.0492524607           0.541
H993       H    0.4955891520    0.6826652178   -0.0455082806          0.5401
C994       C    0.4922986503    0.7337611277    0.0292054465          0.5651
C995       C    0.4936717696    0.7653738754    0.0294774635          0.5664
C996       C    0.5081017143    0.7821153796    0.0065263872         -0.4298
C997       C    0.5230169400    0.7636740055   -0.0141610150         -0.4249
C998       C    0.5205377267    0.7325111891   -0.0170865575         -0.4281
C999       C    0.5074905802    0.8144518037    0.0031488711         -0.4316
H1000      H    0.4809177782    0.7762936992    0.0487747372          0.5628
H1001      H    0.4789166882    0.7226888687    0.0481004368          0.5608
C1002      C    0.5394354321    0.7202223954   -0.0461240140         -0.4228
H1003      H    0.5390205921    0.7740249316   -0.0299798711         -0.4171
C1004      C    0.5595734772    0.6899345470   -0.0439310331         -0.4049
H1005      H    0.5633653306    0.6825011088   -0.0196098334         -0.3926
H1006      H    0.5483769024    0.6708707447   -0.0572189961         -0.4194
H1007      H    0.5824589492    0.6938560797   -0.0550925129         -0.3896
H1008      H    0.5567183775    0.7377970192   -0.0536364985         -0.4109
H1009      H    0.5235028348    0.7188121355   -0.0663462252          0.5561
C1010      C    0.4949567697    0.8317998928    0.0269332782         -0.4374
C1011      C    0.4914509035    0.8630138306    0.0256383936          0.5632
C1012      C    0.5000000000    0.8791055659    0.0000000000          0.5609
C1013      C    0.5126475623    0.8629241480   -0.0235767951          0.5629
C1014      C    0.5169520800    0.8316781175   -0.0229873857         -0.4333
H1015      H    0.4810402744    0.8748284895    0.0458783348          0.5619
H1016      H    0.4871654854    0.8215719286    0.0489447777         -0.4318
C1017      C    0.5319131607    0.8211585201   -0.0546328943         -0.4323
H1018      H    0.5197022697    0.8763624714   -0.0442040022          0.5612
C1019      C    0.5114729319    0.7990489736   -0.0752820466          0.5426
H1020      H    0.5010001679    0.8120394435   -0.0948801032          0.5264
H1021      H    0.4923819528    0.7881170016   -0.0618859414          0.5313
H1022      H    0.5262410738    0.7803387145   -0.0851528481          0.5515
H1023      H    0.5556211255    0.8118084800   -0.0506328582         -0.4107
H1024      H    0.5374284059    0.8410347154   -0.0700463453         -0.4333
C941       C    0.5000000000    1.1208944341    0.0000000000          0.5607
C942       C    0.4841831060    1.1351974185    0.0234022619         -0.4308
C943       C    0.4825915936    1.1667622004    0.0248396144         -0.4306
C944       C    0.4973679968    1.1848879233    0.0032857673          0.5617
C945       C    0.5093536365    1.1698032013   -0.0217744125          0.5499
C946       C    0.5111819368    1.1386718436   -0.0233319443          0.5497
C947       C    0.5007665058    1.2165412958    0.0063353068          0.5659
H948       H    0.4714495355    1.1769735806    0.0455681615         -0.4215
H949       H    0.4739552717    1.1214331338    0.0425163374         -0.4224
H950       H    0.5226441232    1.1281973910   -0.0437692126           0.541
H951       H    0.5183981566    1.1826652178   -0.0418565051          0.5401
C952       C    0.4790048626    1.2337611277    0.0217134313          0.5651
C953       C    0.4800697671    1.2653738754    0.0226219621          0.5664
C954       C    0.5038774086    1.2821153796    0.0096538700         -0.4298
C955       C    0.5270018328    1.2636740055   -0.0011022247         -0.4249
C956       C    0.5262691367    1.2325111891   -0.0048663254         -0.4281
C957       C    0.5049953206    1.3144518037    0.0064086624         -0.4316
H958       H    0.4595102960    1.2762936992    0.0332218310          0.5628
H959       H    0.4580942155    1.2226888687    0.0316553832          0.5608
C960       C    0.5569495849    1.2202223954   -0.0209600275         -0.4228
H961       H    0.5486958546    1.2740249316   -0.0070790557         -0.4171
C962       C    0.5734455217    1.1899345470   -0.0092027278         -0.4049
H963       H    0.5648643715    1.1825011088    0.0138680929         -0.3926
H964       H    0.5701735314    1.1708707447   -0.0262681117         -0.4194
H965       H    0.5988663850    1.1938560797   -0.0077524967         -0.3896
H966       H    0.5756991800    1.2377970192   -0.0190652162         -0.4109
H967       H    0.5529357113    1.2188121355   -0.0463898191          0.5561
C968       C    0.4824344588    1.3317998928    0.0210306303         -0.4334
C969       C    0.4800090116    1.3630138306    0.0181872115          0.5632
C970       C    0.5000000000    1.3791055659    0.0000000000          0.5609
C971       C    0.5225586079    1.3629241480   -0.0143852463          0.5629
C972       C    0.5260256407    1.3316781175   -0.0117668576         -0.4333
H973       H    0.4610330238    1.3748284895    0.0307549600          0.5619
H974       H    0.4648775231    1.3215719286    0.0364242727         -0.4318
C975       C    0.5545467818    1.3211585201   -0.0320601243         -0.4323
H976       H    0.5387962802    1.3763624714   -0.0289313305          0.5612
C977       C    0.5468092633    1.2990489736   -0.0600658603          0.5426
H978       H    0.5472533074    1.3120394435   -0.0822821929          0.5264
H979       H    0.5236062592    1.2881170016   -0.0577117744          0.5313
H980       H    0.5645178341    1.2803387145   -0.0614577136          0.5515
H981       H    0.5732736771    1.3118084800   -0.0169812889         -0.4107
H982       H    0.5668927942    1.3410347154   -0.0428103977         -0.4333
C899       C    0.5000000000    1.0000000000   -0.1208944341          0.5607
C900       C    0.5070826745    0.9726563404   -0.1351974185         -0.4308
C901       C    0.5081020567    0.9707696095   -0.1667622004         -0.4306
C902       C    0.5013820205    0.9960233523   -0.1848879233          0.5617
C903       C    0.4984644262    1.0236486272   -0.1698032013          0.5499
C904       C    0.4972620612    1.0257277871   -0.1386718436          0.5497
C905       C    0.4971595240    0.9942855149   -0.2165412958          0.5659
H906       H    0.5116728032    0.9475087433   -0.1769735806         -0.4215
H907       H    0.5103315698    0.9512226950   -0.1214331338         -0.4224
H908       H    0.4932922248    1.0488211639   -0.1281973910           0.541
H909       H    0.4966543893    1.0455989701   -0.1826652178          0.5401
C910       C    0.5125275684    0.9725167519   -0.2337611277          0.5651
C911       C    0.5112201940    0.9720165299   -0.2653738754          0.5664
C912       C    0.4931181415    0.9921979793   -0.2821153796         -0.4298
C913       C    0.4749204563    1.0100662982   -0.2636740055         -0.4249
C914       C    0.4768694390    1.0133688373   -0.2325111891         -0.4281
C915       C    0.4931495257    0.9956301965   -0.3144518037         -0.4316
H916       H    0.5270527536    0.9551529856   -0.2762936992          0.5628
H917       H    0.5289110568    0.9561558573   -0.2226888687          0.5608
C918       C    0.4533350484    1.0387938173   -0.2202223954         -0.4228
H919       H    0.4564730158    1.0229521443   -0.2740249316         -0.4171
C920       C    0.4338575396    1.0332281476   -0.1899345470         -0.4049
H921       H    0.4342316517    1.0086159769   -0.1825011088         -0.3926
H922       H    0.4426467029    1.0482176059   -0.1708707447         -0.4194
H923       H    0.4094146304    1.0403603034   -0.1938560797         -0.3896
H924       H    0.4350308823    1.0432765764   -0.2377970192         -0.4109
H925       H    0.4656198695    1.0614183318   -0.2188121355          0.5561
C926       C    0.5095236038    0.9743068761   -0.3317998928         -0.4334
C927       C    0.5127601197    0.9761757765   -0.3630138306          0.5632
C928       C    0.5000000000    1.0000000000   -0.3791055659          0.5609
C929       C    0.4835489031    1.0210994671   -0.3629241480          0.5629
C930       C    0.4794059723    1.0197908801   -0.3316781175         -0.4333
H931       H    0.5264423960    0.9579869961   -0.3748284895          0.5619
H932       H    0.5209237067    0.9539292444   -0.3215719286         -0.4318
C933       C    0.4593106713    1.0484518473   -0.3211585201         -0.4323
H934       H    0.4731087851    1.0402372440   -0.3763624714          0.5612
C935       C    0.4759660786    1.0722591540   -0.2990489736          0.5426
H936       H    0.4829751538    1.0933455352   -0.3120394435          0.5264
H937       H    0.4970468583    1.0622830903   -0.2881170016          0.5313
H938       H    0.4597418602    1.0794914062   -0.2803387145          0.5515
H939       H    0.4366200953    1.0405016495   -0.3118084800         -0.4107
H940       H    0.4512692229    1.0627111427   -0.3410347154         -0.4333
C857       C    0.5000000000    1.0000000000    0.3791055659          0.5607
C858       C    0.4732676338    1.0091225325    0.3648025815         -0.4308
C859       C    0.4711312337    1.0093087801    0.3332377996         -0.4306
C860       C    0.4959186837    1.0010327460    0.3151120767          0.5617
C861       C    0.5205956249    0.9882766988    0.3301967987          0.5499
C862       C    0.5229933732    0.9881374486    0.3613281564          0.5497
C863       C    0.4967894615    1.0055150781    0.2834587042          0.5659
H864       H    0.4497401998    1.0191190703    0.3230264194         -0.4215
H865       H    0.4535796836    1.0181967315    0.3785668662         -0.4224
H866       H    0.5444640049    0.9787525871    0.3718026090           0.541
H867       H    0.5399238018    0.9777166152    0.3173347822          0.5401
C868       C    0.4701565771    1.0046517742    0.2662388723          0.5651
C869       C    0.4704577998    1.0060187836    0.2346261246          0.5664
C870       C    0.4972685692    1.0100384655    0.2178846204         -0.4298
C871       C    0.5222000272    1.0154101482    0.2363259945         -0.4249
C872       C    0.5238864156    1.0119661110    0.2674888109         -0.4281
C873       C    0.5001178661    1.0081246716    0.1855481963         -0.4316
H874       H    0.4476662450    1.0020698467    0.2237063008          0.5628
H875       H    0.4474818420    0.9999662692    0.2773111313          0.5608
C876       C    0.5580641033    1.0176391008    0.2797776046         -0.4228
H877       H    0.5431075240    1.0237305849    0.2259750684         -0.4171
C878       C    0.5641275564    1.0369674366    0.3100654530         -0.4049
H879       H    0.5433659461    1.0501906905    0.3174988912         -0.3926
H880       H    0.5718129290    1.0213832043    0.3291292553         -0.4194
H881       H    0.5835268907    1.0534595344    0.3061439203         -0.3896
H882       H    0.5718746222    1.0304612377    0.2622029808         -0.4109
H883       H    0.5702037343    0.9949363512    0.2811878645          0.5561
C884       C    0.4733037329    1.0061761617    0.1682001072         -0.4334
C885       C    0.4730846676    1.0024452323    0.1369861694          0.5632
C886       C    0.5000000000    1.0000000000    0.1208944341          0.5609
C887       C    0.5266695301    1.0021359457    0.1370758520          0.5629
C888       C    0.5278550562    1.0063157547    0.1683218825         -0.4333
H889       H    0.4503688574    1.0010210195    0.1251715105          0.5619
H890       H    0.4500149179    1.0078617803    0.1784280714         -0.4318
C891       C    0.5628440496    1.0073367843    0.1788414799         -0.4323
H892       H    0.5483948764    1.0003304269    0.1236375286          0.5612
C893       C    0.5735678905    0.9803332720    0.2009510264          0.5426
H894       H    0.5873243356    0.9628826896    0.1879605565          0.5264
H895       H    0.5536423867    0.9682132302    0.2118829984          0.5313
H896       H    0.5885308735    0.9899061440    0.2196612855          0.5515
H897       H    0.5686830247    1.0306600400    0.1881915200         -0.4107
H898       H    0.5791757598    1.0062108879    0.1589652846         -0.4333
C815       C    0.8791055659    0.5000000000    0.5000000000          0.5607
C816       C    0.8648025815    0.4875271135    0.5253429892         -0.4308
C817       C    0.8332377996    0.4861467968    0.5269842142         -0.4306
C818       C    0.8151120767    0.4978413610    0.5036144135          0.5617
C819       C    0.8301967987    0.5062924790    0.4771522373          0.5499
C820       C    0.8613281564    0.5078909536    0.4753596228          0.5497
C821       C    0.7834587042    0.5016244791    0.5061712812          0.5659
H822       H    0.8230264194    0.4779398264    0.5490401377         -0.4215
H823       H    0.8785668662    0.4800053288    0.5456747188         -0.4224
H824       H    0.8718026090    0.5164548304    0.4535485324           0.541
H825       H    0.8173347822    0.5125098420    0.4560231534          0.5401
C826       C    0.7662388723    0.4821667535    0.5243771248          0.5651
C827       C    0.7346261246    0.4833457513    0.5251317200          0.5664
C828       C    0.7178846204    0.5051594234    0.5090339279         -0.4298
C829       C    0.7363259945    0.5265983509    0.4952207112         -0.4249
C830       C    0.7674888109    0.5253584905    0.4915919311         -0.4281
C831       C    0.6855481963    0.5058236946    0.5056664595         -0.4316
H832       H    0.7237063008    0.4644264133    0.5384399026          0.5628
H833       H    0.7773111313    0.4628096839    0.5370815108          0.5608
C834       C    0.7797776046    0.5535537473    0.4714592552         -0.4228
H835       H    0.7259750684    0.5472729362    0.4863373214         -0.4171
C836       C    0.8100654530    0.5715007308    0.4808537117         -0.4049
H837       H    0.8174988912    0.5661505396    0.5048802462         -0.3926
H838       H    0.8291292553    0.5659289321    0.4643950268         -0.4194
H839       H    0.8061439203    0.5968814884    0.4788188648         -0.3896
H840       H    0.7622029808    0.5723864475    0.4707758568         -0.4109
H841       H    0.7811878645    0.5461047659    0.4468158350          0.5561
C842       C    0.6682001072    0.4854709764    0.5232323722         -0.4334
C843       C    0.6369861694    0.4826799522    0.5207468123          0.5632
C844       C    0.6208944341    0.5000000000    0.5000000000          0.5609
C845       C    0.6370758520    0.5203828123    0.4826688989          0.5629
C846       C    0.6683218825    0.5241749340    0.4847892972         -0.4333
H847       H    0.6251715105    0.4655979980    0.5357881972          0.5619
H848       H    0.6784280714    0.4701806864    0.5408793904         -0.4318
C849       C    0.6788414799    0.5496576170    0.4607912760         -0.4323
H850       H    0.6236375286    0.5344819412    0.4660416583          0.5612
C851       C    0.7009510264    0.5381681020    0.4341045472          0.5426
H852       H    0.6879605565    0.5355741075    0.4120357050          0.5264
H853       H    0.7118829984    0.5155039464    0.4396051986          0.5313
H854       H    0.7196612855    0.5555207012    0.4303074378          0.5515
H855       H    0.6881915200    0.5702682501    0.4731714897         -0.4107
H856       H    0.6589652846    0.5604199030    0.4484557338         -0.4333
C773       C    1.1208944341    0.5000000000    0.5000000000          0.5607
C774       C    1.1351974185    0.4746570108    0.5124728865         -0.4308
C775       C    1.1667622004    0.4730157858    0.5138532032         -0.4306
C776       C    1.1848879233    0.4963855865    0.5021586390          0.5617
C777       C    1.1698032013    0.5228477627    0.4937075210          0.5499
C778       C    1.1386718436    0.5246403772    0.4921090464          0.5497
C779       C    1.2165412958    0.4938287188    0.4983755209          0.5659
H780       H    1.1769735806    0.4509598623    0.5220601736         -0.4215
H781       H    1.1214331338    0.4543252812    0.5199946712         -0.4224
H782       H    1.1281973910    0.5464514676    0.4835451696           0.541
H783       H    1.1826652178    0.5439768466    0.4874901580          0.5401
C784       C    1.2337611277    0.4756228752    0.5178332465          0.5651
C785       C    1.2653738754    0.4748682800    0.5166542487          0.5664
C786       C    1.2821153796    0.4909660721    0.4948405766         -0.4298
C787       C    1.2636740055    0.5047792888    0.4734016491         -0.4249
C788       C    1.2325111891    0.5084080689    0.4746415095         -0.4281
C789       C    1.3144518037    0.4943335405    0.4941763054         -0.4316
H790       H    1.2762936992    0.4615600974    0.5355735867          0.5628
H791       H    1.2226888687    0.4629184892    0.5371903161          0.5608
C792       C    1.2202223954    0.5285407448    0.4464462527         -0.4228
H793       H    1.2740249316    0.5136626786    0.4527270638         -0.4171
C794       C    1.1899345470    0.5191462883    0.4284992692         -0.4049
H795       H    1.1825011088    0.4951197538    0.4338494604         -0.3926
H796       H    1.1708707447    0.5356049732    0.4340710679         -0.4194
H797       H    1.1938560797    0.5211811352    0.4031185116         -0.3896
H798       H    1.2377970192    0.5292241432    0.4276135525         -0.4109
H799       H    1.2188121355    0.5531841650    0.4538952341          0.5561
C800       C    1.3317998928    0.4767676278    0.5145290236         -0.4334
C801       C    1.3630138306    0.4792531877    0.5173200478          0.5632
C802       C    1.3791055659    0.5000000000    0.5000000000          0.5609
C803       C    1.3629241480    0.5173311011    0.4796171877          0.5629
C804       C    1.3316781175    0.5152107028    0.4758250660         -0.4333
H805       H    1.3748284895    0.4642118028    0.5344020020          0.5619
H806       H    1.3215719286    0.4591206096    0.5298193136         -0.4318
C807       C    1.3211585201    0.5392087240    0.4503423830         -0.4323
H808       H    1.3763624714    0.5339583417    0.4655180588          0.5612
C809       C    1.2990489736    0.5658954528    0.4618318980          0.5426
H810       H    1.3120394435    0.5879642950    0.4644258925          0.5264
H811       H    1.2881170016    0.5603948014    0.4844960536          0.5313
H812       H    1.2803387145    0.5696925622    0.4444792988          0.5515
H813       H    1.3118084800    0.5268285103    0.4297317499         -0.4107
H814       H    1.3410347154    0.5515442662    0.4395800970         -0.4333
C731       C    0.8791055659    0.5000000000    0.0000000000          0.5607
C732       C    0.8648025815    0.4781465941    0.0178960513         -0.4308
C733       C    0.8332377996    0.4762102637    0.0188177443         -0.4306
C734       C    0.8151120767    0.4965376527    0.0023949653          0.5617
C735       C    0.8301967987    0.5151946231   -0.0181862306          0.5499
C736       C    0.8613281564    0.5173922331   -0.0191553012          0.5497
C737       C    0.7834587042    0.4989211350    0.0062896498          0.5659
H738       H    0.8230264194    0.4596013898    0.0354899797         -0.4215
H739       H    0.8785668662    0.4628757930    0.0332830298         -0.4224
H740       H    0.8718026090    0.5342244718   -0.0354568163           0.541
H741       H    0.8173347822    0.5296086835   -0.0348394180          0.5401
C742       C    0.7662388723    0.4736683709    0.0147957495          0.5651
C743       C    0.7346261246    0.4744286822    0.0159710694          0.5664
C744       C    0.7178846204    0.5009520431    0.0103597837         -0.4298
C745       C    0.7363259945    0.5261876485    0.0066724012         -0.4249
C746       C    0.7674888109    0.5265629735    0.0028560641         -0.4281
C747       C    0.6855481963    0.5029520346    0.0075703153         -0.4316
H748       H    0.7237063008    0.4516954362    0.0202429074          0.5628
H749       H    0.7773111313    0.4507869512    0.0183366814          0.5608
C750       C    0.7797776046    0.5605662240   -0.0037829198         -0.4228
H751       H    0.7259750684    0.5486847653    0.0071549220         -0.4171
C752       C    0.8100654530    0.5730068316    0.0122039908         -0.4049
H753       H    0.8174988912    0.5581813164    0.0318534947         -0.3926
H754       H    0.8291292553    0.5747562148   -0.0050839503         -0.4194
H755       H    0.8061439203    0.5969490846    0.0208695538         -0.3896
H756       H    0.7622029808    0.5779890635    0.0033991615         -0.4109
H757       H    0.7811878645    0.5639988374   -0.0292976733          0.5561
C758       C    0.6682001072    0.4771499170    0.0151231397         -0.4334
C759       C    0.6369861694    0.4756397907    0.0117044642          0.5632
C760       C    0.6208944341    0.5000000000    0.0000000000          0.5609
C761       C    0.6370758520    0.5257322031   -0.0073266516          0.5629
C762       C    0.6683218825    0.5283047472   -0.0038254672         -0.4333
H763       H    0.6251715105    0.4538605304    0.0183150797          0.5619
H764       H    0.6784280714    0.4559215082    0.0248475871         -0.4318
C765       C    0.6788414799    0.5614410354   -0.0151063608         -0.4323
H766       H    0.6236375286    0.5454539524   -0.0166166017          0.5612
C767       C    0.7009510264    0.5620430800   -0.0441550783          0.5426
H768       H    0.6879605565    0.5688273449   -0.0653148598          0.5264
H769       H    0.7118829984    0.5391370201   -0.0485406844          0.5313
H770       H    0.7196612855    0.5794091631   -0.0404201225          0.5515
H771       H    0.6881915200    0.5750685701    0.0047016726         -0.4107
H772       H    0.6589652846    0.5763474950   -0.0218731817         -0.4333
C689       C    1.1208944341    0.5000000000    0.0000000000          0.5607
C690       C    1.1351974185    0.5244546409   -0.0141354355         -0.4308
C691       C    1.1667622004    0.5260001471   -0.0156221447         -0.4306
C692       C    1.1848879233    0.5034623884   -0.0023949059          0.5617
C693       C    1.1698032013    0.4776228092    0.0078023642          0.5499
C694       C    1.1386718436    0.4759408014    0.0095168429          0.5497
C695       C    1.2165412958    0.5062658884    0.0012092504          0.5659
H696       H    1.1769735806    0.5474595694   -0.0252819231         -0.4215
H697       H    1.1214331338    0.5442394092   -0.0229965539         -0.4224
H698       H    1.1281973910    0.4547494718    0.0195164030           0.541
H699       H    1.1826652178    0.4569554601    0.0154151473          0.5401
C700       C    1.2337611277    0.5231334027   -0.0194194381          0.5651
C701       C    1.2653738754    0.5239649543   -0.0182933955          0.5664
C702       C    1.2821153796    0.5093579339    0.0045453908         -0.4298
C703       C    1.2636740055    0.4970054069    0.0268578906         -0.4249
C704       C    1.2325111891    0.4933020114    0.0258628230         -0.4281
C705       C    1.3144518037    0.5060422695    0.0054327857         -0.4316
H706       H    1.2762936992    0.5359816229   -0.0380582316          0.5628
H707       H    1.2226888687    0.5345184235   -0.0395807592          0.5608
C708       C    1.2202223954    0.4750947300    0.0553381017         -0.4228
H709       H    1.2740249316    0.4895207493    0.0480789412         -0.4171
C710       C    1.1899345470    0.4856652927    0.0726185309         -0.4049
H711       H    1.1825011088    0.5092814790    0.0656777347         -0.3926
H712       H    1.1708707447    0.4688716306    0.0681568986         -0.4194
H713       H    1.1938560797    0.4853278195    0.0980784910         -0.3896
H714       H    1.2377970192    0.4756689544    0.0741744467         -0.4109
H715       H    1.2188121355    0.4500093542    0.0495493711          0.5561
C716       C    1.3317998928    0.5222115839   -0.0160462204         -0.4334
C717       C    1.3630138306    0.5195454034   -0.0186652480          0.5632
C718       C    1.3791055659    0.5000000000    0.0000000000          0.5609
C719       C    1.3629241480    0.4840669817    0.0214933718          0.5629
C720       C    1.3316781175    0.4864355847    0.0251356232         -0.4333
H721       H    1.3748284895    0.5334139644   -0.0367123927          0.5619
H722       H    1.3215719286    0.5387994762   -0.0324794807         -0.4318
C723       C    1.3211585201    0.4641906425    0.0521621787         -0.4323
H724       H    1.3763624714    0.4684171482    0.0366701065          0.5612
C725       C    1.2990489736    0.4367970132    0.0424781963          0.5426
H726       H    1.3120394435    0.4146042995    0.0413619228          0.5264
H727       H    1.2881170016    0.4407737649    0.0194976271          0.5313
H728       H    1.2803387145    0.4341657404    0.0600454141          0.5515
H729       H    1.3118084800    0.4779179735    0.0719011825         -0.4107
H730       H    1.3410347154    0.4526003905    0.0637232538         -0.4333
C647       C    1.0000000000    0.5000000000   -0.1208944341          0.5607
C648       C    0.9908396826    0.4732805579   -0.1351974185         -0.4308
C649       C    0.9906504147    0.4711444233   -0.1667622004         -0.4306
C650       C    0.9989614849    0.4959201478   -0.1848879233          0.5617
C651       C    1.0117524074    0.5205790300   -0.1698032013          0.5499
C652       C    1.0118950474    0.5229765790   -0.1386718436          0.5497
C653       C    0.9944803884    0.4967972619   -0.2165412958          0.5659
H654       H    0.9808098918    0.4497672804   -0.1769735806         -0.4215
H655       H    0.9817376579    0.4536054564   -0.1214331338         -0.4224
H656       H    1.0213102546    0.5444339211   -0.1281973910           0.541
H657       H    1.0223398065    0.5398922578   -0.1826652178          0.5401
C658       C    0.9953060381    0.4701631836   -0.2337611277          0.5651
C659       C    0.9939394559    0.4704663386   -0.2653738754          0.5664
C660       C    0.9899576828    0.4972827643   -0.2821153796         -0.4298
C661       C    0.9846212534    0.5222217917   -0.2636740055         -0.4249
C662       C    0.9880676714    0.5239033094   -0.2325111891         -0.4281
C663       C    0.9918755031    0.5001293526   -0.3144518037         -0.4316
H664       H    0.9978561663    0.4476692236   -0.2762936992          0.5628
H665       H    0.9999594809    0.4474818468   -0.2226888687          0.5608
C666       C    0.9824430074    0.5580889833   -0.2202223954         -0.4228
H667       H    0.9763303840    0.5431410310   -0.2740249316         -0.4171
C668       C    0.9631232634    0.5641797566   -0.1899345470         -0.4049
H669       H    0.9498706701    0.5434368620   -0.1825011088         -0.3926
H670       H    0.9787183457    0.5718430887   -0.1708707447         -0.4194
H671       H    0.9466586088    0.5836023879   -0.1938560797         -0.3896
H672       H    0.9696404086    0.5719176163   -0.2377970192         -0.4109
H673       H    1.0051628973    0.5701965052   -0.2188121355          0.5561
C674       C    0.9937861015    0.4733124914   -0.3317998928         -0.4334
C675       C    0.9975167175    0.4730881516   -0.3630138306          0.5632
C676       C    1.0000000000    0.5000000000   -0.3791055659          0.5609
C677       C    0.9979017617    0.5266725233   -0.3629241480          0.5629
C678       C    0.9937236329    0.5278639576   -0.3316781175         -0.4333
H679       H    0.9989088134    0.4503703505   -0.3748284895          0.5619
H680       H    0.9920675590    0.4500260827   -0.3215719286         -0.4318
C681       C    0.9927520715    0.5628543595   -0.3211585201         -0.4323
H682       H    0.9997379938    0.5483952952   -0.3763624714          0.5612
C683       C    1.0197707181    0.5735400123   -0.2990489736          0.5426
H684       H    1.0372407318    0.5872717722   -0.3120394435          0.5264
H685       H    1.0318625773    0.5535973931   -0.2881170016          0.5313
H686       H    1.0102190103    0.5885165144   -0.2803387145          0.5515
H687       H    0.9694370942    0.5687263030   -0.3118084800         -0.4107
H688       H    0.9939010564    0.5791844615   -0.3410347154         -0.4333
C605       C    1.0000000000    0.5000000000    0.1208944341          0.5607
C606       C    0.9732676338    0.4908774675    0.1351974185         -0.4308
C607       C    0.9711312337    0.4906912199    0.1667622004         -0.4306
C608       C    0.9959186837    0.4989672540    0.1848879233          0.5617
C609       C    1.0205956249    0.5117233012    0.1698032013          0.5499
C610       C    1.0229933732    0.5118625514    0.1386718436          0.5497
C611       C    0.9967894615    0.4944849219    0.2165412958          0.5659
H612       H    0.9497401998    0.4808809297    0.1769735806         -0.4215
H613       H    0.9535796836    0.4818032685    0.1214331338         -0.4224
H614       H    1.0444640049    0.5212474129    0.1281973910           0.541
H615       H    1.0399238018    0.5222833848    0.1826652178          0.5401
C616       C    0.9701565771    0.4953482258    0.2337611277          0.5651
C617       C    0.9704577998    0.4939812164    0.2653738754          0.5664
C618       C    0.9972685692    0.4899615345    0.2821153796         -0.4298
C619       C    1.0222000272    0.4845898518    0.2636740055         -0.4249
C620       C    1.0238864156    0.4880338890    0.2325111891         -0.4281
C621       C    1.0001178661    0.4918753284    0.3144518037         -0.4316
H622       H    0.9476662450    0.4979301533    0.2762936992          0.5628
H623       H    0.9474818420    0.5000337308    0.2226888687          0.5608
C624       C    1.0580641033    0.4823608992    0.2202223954         -0.4228
H625       H    1.0431075240    0.4762694151    0.2740249316         -0.4171
C626       C    1.0641275564    0.4630325634    0.1899345470         -0.4049
H627       H    1.0433659461    0.4498093095    0.1825011088         -0.3926
H628       H    1.0718129290    0.4786167957    0.1708707447         -0.4194
H629       H    1.0835268907    0.4465404656    0.1938560797         -0.3896
H630       H    1.0718746222    0.4695387623    0.2377970192         -0.4109
H631       H    1.0702037343    0.5050636488    0.2188121355          0.5561
C632       C    0.9733037329    0.4938238383    0.3317998928         -0.4334
C633       C    0.9730846676    0.4975547677    0.3630138306          0.5632
C634       C    1.0000000000    0.5000000000    0.3791055659          0.5609
C635       C    1.0266695301    0.4978640543    0.3629241480          0.5629
C636       C    1.0278550562    0.4936842453    0.3316781175         -0.4333
H637       H    0.9503688574    0.4989789805    0.3748284895          0.5619
H638       H    0.9500149179    0.4921382197    0.3215719286         -0.4318
C639       C    1.0628440496    0.4926632157    0.3211585201         -0.4323
H640       H    1.0483948764    0.4996695731    0.3763624714          0.5612
C641       C    1.0735678905    0.5196667280    0.2990489736          0.5426
H642       H    1.0873243356    0.5371173104    0.3120394435          0.5264
H643       H    1.0536423867    0.5317867698    0.2881170016          0.5313
H644       H    1.0885308735    0.5100938560    0.2803387145          0.5515
H645       H    1.0686830247    0.4693399600    0.3118084800         -0.4107
H646       H    1.0791757598    0.4937891121    0.3410347154         -0.4333
C563       C    1.0000000000   -0.3791055659    0.5000000000          0.5607
C564       C    0.9732676338   -0.3648025815    0.5091225325         -0.4308
C565       C    0.9711312337   -0.3332377996    0.5093087801         -0.4306
C566       C    0.9959186837   -0.3151120767    0.5010327460          0.5617
C567       C    1.0205956249   -0.3301967987    0.4882766988          0.5499
C568       C    1.0229933732   -0.3613281564    0.4881374486          0.5497
C569       C    0.9967894615   -0.2834587042    0.5055150781          0.5659
H570       H    0.9497401998   -0.3230264194    0.5191190703         -0.4215
H571       H    0.9535796836   -0.3785668662    0.5181967315         -0.4224
H572       H    1.0444640049   -0.3718026090    0.4787525871           0.541
H573       H    1.0399238018   -0.3173347822    0.4777166152          0.5401
C574       C    0.9701565771   -0.2662388723    0.5046517742          0.5651
C575       C    0.9704577998   -0.2346261246    0.5060187836          0.5664
C576       C    0.9972685692   -0.2178846204    0.5100384655         -0.4298
C577       C    1.0222000272   -0.2363259945    0.5154101482         -0.4249
C578       C    1.0238864156   -0.2674888109    0.5119661110         -0.4281
C579       C    1.0001178661   -0.1855481963    0.5081246716         -0.4316
H580       H    0.9476662450   -0.2237063008    0.5020698467          0.5628
H581       H    0.9474818420   -0.2773111313    0.4999662692          0.5608
C582       C    1.0580641033   -0.2797776046    0.5176391008         -0.4228
H583       H    1.0431075240   -0.2259750684    0.5237305849         -0.4171
C584       C    1.0641275564   -0.3100654530    0.5369674366         -0.4049
H585       H    1.0433659461   -0.3174988912    0.5501906905         -0.3926
H586       H    1.0718129290   -0.3291292553    0.5213832043         -0.4194
H587       H    1.0835268907   -0.3061439203    0.5534595344         -0.3896
H588       H    1.0718746222   -0.2622029808    0.5304612377         -0.4109
H589       H    1.0702037343   -0.2811878645    0.4949363512          0.5561
C590       C    0.9733037329   -0.1682001072    0.5061761617         -0.4334
C591       C    0.9730846676   -0.1369861694    0.5024452323          0.5632
C592       C    1.0000000000   -0.1208944341    0.5000000000          0.5609
C593       C    1.0266695301   -0.1370758520    0.5021359457          0.5629
C594       C    1.0278550562   -0.1683218825    0.5063157547         -0.4333
H595       H    0.9503688574   -0.1251715105    0.5010210195          0.5619
H596       H    0.9500149179   -0.1784280714    0.5078617803         -0.4318
C597       C    1.0628440496   -0.1788414799    0.5073367843         -0.4323
H598       H    1.0483948764   -0.1236375286    0.5003304269          0.5612
C599       C    1.0735678905   -0.2009510264    0.4803332720          0.5426
H600       H    1.0873243356   -0.1879605565    0.4628826896          0.5264
H601       H    1.0536423867   -0.2118829984    0.4682132302          0.5313
H602       H    1.0885308735   -0.2196612855    0.4899061440          0.5515
H603       H    1.0686830247   -0.1881915200    0.5306600400         -0.4107
H604       H    1.0791757598   -0.1589652846    0.5062108879         -0.4333
C521       C    1.0000000000    0.1208944341    0.5000000000          0.5607
C522       C    1.0092548384    0.1351974185    0.5266868501         -0.4308
C523       C    1.0094516664    0.1667622004    0.5288223014         -0.4306
C524       C    1.0010529500    0.1848879233    0.5040761506          0.5617
C525       C    0.9881748229    0.1698032013    0.4794626988          0.5499
C526       C    0.9880236972    0.1386718436    0.4770656697          0.5497
C527       C    1.0055309137    0.2165412958    0.5031831803          0.5659
H528       H    1.0193677959    0.1769735806    0.5501644779         -0.4215
H529       H    1.0184264497    0.1214331338    0.5463296101         -0.4224
H530       H    0.9785325969    0.1281973910    0.4556417889           0.541
H531       H    0.9775191274    0.1826652178    0.4601870680          0.5401
C532       C    1.0047995454    0.2337611277    0.5298200144          0.5651
C533       C    1.0061650460    0.2653738754    0.5295120240          0.5664
C534       C    1.0100518724    0.2821153796    0.5026816721         -0.4298
C535       C    1.0152999921    0.2636740055    0.4777239116         -0.4249
C536       C    1.0118476437    0.2325111891    0.4760546037         -0.4281
C537       C    1.0081239881    0.3144518037    0.4998418901         -0.4316
H538       H    1.0023290547    0.2762936992    0.5523228601          0.5628
H539       H    1.0002264165    0.2226888687    0.5525176808          0.5608
C540       C    1.0173512659    0.2202223954    0.4418492344         -0.4228
H541       H    1.0235167621    0.2740249316    0.4567754563         -0.4171
C542       C    1.0366493295    0.1899345470    0.4356901135         -0.4049
H543       H    1.0499752631    0.1825011088    0.4563859682         -0.3926
H544       H    1.0210272192    0.1708707447    0.4280820311         -0.4194
H545       H    1.0530451310    0.1938560797    0.4162093241         -0.3896
H546       H    1.0301048356    0.2377970192    0.4279753709         -0.4109
H547       H    0.9945886616    0.2188121355    0.4298222096          0.5561
C548       C    1.0063083249    0.3317998928    0.5266653461         -0.4334
C549       C    1.0025785264    0.3630138306    0.5269028898          0.5632
C550       C    1.0000000000    0.3791055659    0.5000000000          0.5609
C551       C    1.0020038129    0.3629241480    0.4733202167          0.5629
C552       C    1.0061776982    0.3316781175    0.4721140006         -0.4333
H553       H    1.0012668531    0.3748284895    0.5496254761          0.5619
H554       H    1.0081092831    0.3215719286    0.5499455258         -0.4318
C555       C    1.0070253985    0.3211585201    0.4371203789         -0.4323
H556       H    1.0000907005    0.3763624714    0.4516040806          0.5612
C557       C    0.9799690973    0.2990489736    0.4265304305          0.5426
H558       H    0.9624505870    0.3120394435    0.4128605950          0.5264
H559       H    0.9679479045    0.2881170016    0.4465157261          0.5313
H560       H    0.9894677333    0.2803387145    0.4115202122          0.5515
H561       H    1.0303194449    0.3118084800    0.4311659445         -0.4107
H562       H    1.0058186174    0.3410347154    0.4207944462         -0.4333
C479       C    0.6208944341   -0.0000000000    0.5000000000          0.5607
C480       C    0.6351974185    0.0179485644    0.5218102966         -0.4308
C481       C    0.6667622004    0.0196682521    0.5230915334         -0.4306
C482       C    0.6848879233    0.0029294736    0.5030235561          0.5617
C483       C    0.6698032013   -0.0113608192    0.4792022275          0.5499
C484       C    0.6386718436   -0.0133275518    0.4778236229          0.5497
C485       C    0.7165412958   -0.0001670397    0.5063793214          0.5659
H486       H    0.6769735806    0.0327111580    0.5426798138         -0.4215
H487       H    0.6214331338    0.0299294021    0.5398772831         -0.4224
H488       H    0.6281973910   -0.0266617604    0.4585554488           0.541
H489       H    0.6826652178   -0.0222546690    0.4600601841          0.5401
C490       C    0.7337611277    0.0229449414    0.5196417555          0.5651
C491       C    0.7653738754    0.0219702411    0.5206464491          0.5664
C492       C    0.7821153796   -0.0029519111    0.5099758571         -0.4298
C493       C    0.7636740055   -0.0269857581    0.5014431687         -0.4249
C494       C    0.7325111891   -0.0266104626    0.4976268287         -0.4281
C495       C    0.8144518037   -0.0043701939    0.5068502253         -0.4316
H496       H    0.7762936992    0.0434358142    0.5292649317          0.5628
H497       H    0.7226888687    0.0446982317    0.5275721987          0.5608
C498       C    0.7202223954   -0.0586690114    0.4844911291         -0.4228
H499       H    0.7740249316   -0.0491458842    0.4975339621         -0.4171
C500       C    0.6899345470   -0.0739855714    0.4977483164         -0.4049
H501       H    0.6825011088   -0.0632718375    0.5199094268         -0.3926
H502       H    0.6708707447   -0.0723337153    0.4804507842         -0.4194
H503       H    0.6938560797   -0.0991572218    0.5015838707         -0.3896
H504       H    0.7377970192   -0.0771571582    0.4881416161         -0.4109
H505       H    0.7188121355   -0.0570655395    0.4587964923          0.5561
C506       C    0.8317998928    0.0194663165    0.5192846615         -0.4334
C507       C    0.8630138306    0.0216134776    0.5162256546          0.5632
C508       C    0.8791055659   -0.0000000000    0.5000000000          0.5609
C509       C    0.8629241480   -0.0238119942    0.4878010233          0.5629
C510       C    0.8316781175   -0.0270172928    0.4907339973         -0.4333
H511       H    0.8748284895    0.0416877423    0.5269522715          0.5619
H512       H    0.8215719286    0.0383937020    0.5329581503         -0.4318
C513       C    0.8211585201   -0.0573212346    0.4732142009         -0.4323
H514       H    0.8763624714   -0.0413462248    0.4748472082          0.5612
C515       C    0.7990489736   -0.0522529970    0.4446047023          0.5426
H516       H    0.8120394435   -0.0547853251    0.4225286990          0.5264
H517       H    0.7881170016   -0.0289314332    0.4447652595          0.5313
H518       H    0.7803387145   -0.0700139678    0.4448851581          0.5515
H519       H    0.8118084800   -0.0745463456    0.4899880925         -0.4107
H520       H    0.8410347154   -0.0706239346    0.4636732066         -0.4333
C437       C    1.3791055659   -0.0000000000    0.5000000000          0.5607
C438       C    1.3648025815    0.0281142936    0.4972748406         -0.4308
C439       C    1.3332377996    0.0302362070    0.4975852872         -0.4306
C440       C    1.3151120767    0.0042094406    0.4999342967          0.5617
C441       C    1.3301967987   -0.0227408627    0.5066684869          0.5499
C442       C    1.3613281564   -0.0251062919    0.5062521550          0.5497
C443       C    1.2834587042    0.0043936516    0.4953718828          0.5659
H444       H    1.3230264194    0.0533108448    0.4929615205         -0.4215
H445       H    1.3785668662    0.0493621551    0.4929754384         -0.4224
H446       H    1.3718026090   -0.0481604779    0.5104435941           0.541
H447       H    1.3173347822   -0.0439805866    0.5124966872          0.5401
C448       C    1.2662388723    0.0301128848    0.5023415937          0.5651
C449       C    1.2346261246    0.0301343670    0.5009419550          0.5664
C450       C    1.2178846204    0.0049684673    0.4908596588         -0.4298
C451       C    1.2363259945   -0.0180574068    0.4798941816         -0.4249
C452       C    1.2674888109   -0.0204911724    0.4828576396         -0.4281
C453       C    1.1855481963    0.0017551985    0.4920663086         -0.4316
H454       H    1.2237063008    0.0514052300    0.5100303795          0.5628
H455       H    1.2773111313    0.0511005424    0.5121199268          0.5608
C456       C    1.2797776046   -0.0524457147    0.4694709158         -0.4228
H457       H    1.2259750684   -0.0364886849    0.4669852282         -0.4171
C458       C    1.3100654530   -0.0538979601    0.4492659409         -0.4049
H459       H    1.3174988912   -0.0306503524    0.4411759692         -0.3926
H460       H    1.3291292553   -0.0649637437    0.4626630182         -0.4194
H461       H    1.3061439203   -0.0689808471    0.4287517999         -0.3896
H462       H    1.2622029808   -0.0629344632    0.4538144863         -0.4109
H463       H    1.2811878645   -0.0694845150    0.4887702620          0.5561
C464       C    1.1682001072    0.0274010537    0.5001338077         -0.4334
C465       C    1.1369861694    0.0267555614    0.5038149982          0.5632
C466       C    1.1208944341   -0.0000000000    0.5000000000          0.5609
C467       C    1.1370758520   -0.0254619955    0.4917833774          0.5629
C468       C    1.1683218825   -0.0256537093    0.4874429257         -0.4333
H469       H    1.1251715105    0.0485337808    0.5104290422          0.5619
H470       H    1.1784280714    0.0504526261    0.5038533815         -0.4318
C471       C    1.1788414799   -0.0594684305    0.4783965571         -0.4323
H472       H    1.1236375286   -0.0470196656    0.4885403189          0.5612
C473       C    1.2009510264   -0.0761192722    0.5022070572          0.5426
H474       H    1.1879605565   -0.0935226922    0.5160231196          0.5264
H475       H    1.2118829984   -0.0595181081    0.5185876087          0.5313
H476       H    1.2196612855   -0.0884773680    0.4894474254          0.5515
H477       H    1.1881915200   -0.0597827897    0.4543555700         -0.4107
H478       H    1.1589652846   -0.0756208412    0.4757334710         -0.4333
C395       C   -0.0000000000   -0.3791055659    0.0000000000          0.5607
C396       C    0.0026624890   -0.3648025815    0.0281202979         -0.4308
C397       C    0.0023473137   -0.3332377996    0.0302415141         -0.4306
C398       C    0.0000563207   -0.3151120767    0.0042095766          0.5617
C399       C   -0.0066177835   -0.3301967987   -0.0227556695          0.5499
C400       C   -0.0061961804   -0.3613281564   -0.0251201649          0.5497
C401       C    0.0046183128   -0.2834587042    0.0044039563          0.5659
H402       H    0.0069196381   -0.3230264194    0.0533264003         -0.4215
H403       H    0.0069145214   -0.3785668662    0.0493776894         -0.4224
H404       H   -0.0103362239   -0.3718026090   -0.0481836359           0.541
H405       H   -0.0123986283   -0.3173347822   -0.0440083310          0.5401
C406       C   -0.0024087062   -0.2662388723    0.0301075909          0.5651
C407       C   -0.0010091188   -0.2346261246    0.0301321926          0.5664
C408       C    0.0091292443   -0.2178846204    0.0049888278         -0.4298
C409       C    0.0201460164   -0.2363259945   -0.0180125483         -0.4249
C410       C    0.0171879903   -0.2674888109   -0.0204529131         -0.4281
C411       C    0.0079297596   -0.1855481963    0.0017728775         -0.4316
H412       H   -0.0101449311   -0.2237063008    0.0513827457          0.5628
H413       H   -0.0122337941   -0.2773111313    0.0510734015          0.5608
C414       C    0.0306459040   -0.2797776046   -0.0523775385         -0.4228
H415       H    0.0330960190   -0.2259750684   -0.0364150080         -0.4171
C416       C    0.0508540657   -0.3100654530   -0.0537847456         -0.4049
H417       H    0.0588922009   -0.3174988912   -0.0305191640         -0.3926
H418       H    0.0374816860   -0.3291292553   -0.0648803624         -0.4194
H419       H    0.0714017737   -0.3061439203   -0.0688218715         -0.3896
H420       H    0.0463256728   -0.2622029808   -0.0628313645         -0.4109
H421       H    0.0113845834   -0.2811878645   -0.0694593126          0.5561
C422       C   -0.0001948812   -0.1682001072    0.0274006874         -0.4334
C423       C   -0.0038746239   -0.1369861694    0.0267469918          0.5632
C424       C   -0.0000000000   -0.1208944341    0.0000000000          0.5609
C425       C    0.0082733541   -0.1370758520   -0.0254436183          0.5629
C426       C    0.0126142224   -0.1683218825   -0.0256256572         -0.4333
H427       H   -0.0105371927   -0.1251715105    0.0485104151          0.5619
H428       H   -0.0039658252   -0.1784280714    0.0504439120         -0.4318
C429       C    0.0217359377   -0.1788414799   -0.0594201311         -0.4323
H430       H    0.0115644542   -0.1236375286   -0.0469940064          0.5612
C431       C   -0.0020373904   -0.2009510264   -0.0761240024          0.5426
H432       H   -0.0158146281   -0.1879605565   -0.0935581737          0.5264
H433       H   -0.0184549033   -0.2118829984   -0.0595593899          0.5313
H434       H    0.0107497546   -0.2196612855   -0.0884536277          0.5515
H435       H    0.0457775658   -0.1881915200   -0.0596809048         -0.4107
H436       H    0.0244350192   -0.1589652846   -0.0755665660         -0.4333
C353       C    0.0000000000    0.3791055659    0.0000000000          0.5607
C354       C    0.0281114457    0.3648025815   -0.0027543817         -0.4308
C355       C    0.0301334913    0.3332377996   -0.0034686823         -0.4306
C356       C    0.0041429189    0.3151120767   -0.0007482851          0.5617
C357       C   -0.0236004962    0.3301967987   -0.0021522389          0.5499
C358       C   -0.0258410312    0.3613281564   -0.0012870278          0.5497
C359       C    0.0052045672    0.2834587042    0.0036927123          0.5659
H360       H    0.0536666907    0.3230264194   -0.0033871336         -0.4215
H361       H    0.0497896149    0.3785668662   -0.0026383829         -0.4224
H362       H   -0.0492706906    0.3718026090   -0.0009483327           0.541
H363       H   -0.0455658588    0.3173347822   -0.0037698402          0.5401
C364       C    0.0290941495    0.2662388723   -0.0081116802          0.5651
C365       C    0.0293854675    0.2346261246   -0.0067425258          0.5664
C366       C    0.0066397797    0.2178846204    0.0080090467         -0.4298
C367       C   -0.0138356275    0.2363259945    0.0232139890         -0.4249
C368       C   -0.0167957774    0.2674888109    0.0207762009         -0.4281
C369       C    0.0032539959    0.1855481963    0.0074455149         -0.4316
H370       H    0.0485013053    0.2237063008   -0.0197668805          0.5628
H371       H    0.0477989045    0.2773111313   -0.0217582809          0.5608
C372       C   -0.0455643546    0.2797776046    0.0400807630         -0.4228
H373       H   -0.0294276503    0.2259750684    0.0394387206         -0.4171
C374       C   -0.0430881294    0.3100654530    0.0601859449         -0.4049
H375       H   -0.0187159655    0.3174988912    0.0636350794         -0.3926
H376       H   -0.0565323781    0.3291292553    0.0491775196         -0.4194
H377       H   -0.0539263694    0.3061439203    0.0832262577         -0.3896
H378       H   -0.0528328215    0.2622029808    0.0574677414         -0.4109
H379       H   -0.0660088283    0.2811878645    0.0244343904          0.5561
C380       C    0.0268596218    0.1682001072   -0.0054218413         -0.4334
C381       C    0.0255155172    0.1369861694   -0.0089091335          0.5632
C382       C    0.0000000000    0.1208944341    0.0000000000          0.5609
C383       C   -0.0233964333    0.1370758520    0.0129781744          0.5629
C384       C   -0.0227464922    0.1683218825    0.0172739691         -0.4333
H385       H    0.0456069141    0.1251715105   -0.0196036269          0.5619
H386       H    0.0487592711    0.1784280714   -0.0135221857         -0.4318
C387       C   -0.0541782748    0.1788414799    0.0326790072         -0.4323
H388       H   -0.0439222953    0.1236375286    0.0203225297          0.5612
C389       C   -0.0751130963    0.2009510264    0.0125314591          0.5426
H390       H   -0.0948566251    0.1879605565    0.0023355934          0.5264
H391       H   -0.0619870413    0.2118829984   -0.0067461911          0.5313
H392       H   -0.0847750447    0.2196612855    0.0274370786          0.5515
H393       H   -0.0498449236    0.1881915200    0.0563283191         -0.4107
H394       H   -0.0695125666    0.1589652846    0.0384106645         -0.4333
C311       C   -0.1208944341   -0.0000000000    0.0000000000          0.5607
C312       C   -0.1351974185    0.0204042115    0.0195322337         -0.4308
C313       C   -0.1667622004    0.0215530008    0.0213430834         -0.4306
C314       C   -0.1848879233    0.0027955692    0.0031477770          0.5617
C315       C   -0.1698032013   -0.0198881148   -0.0128871426          0.5499
C316       C   -0.1386718436   -0.0211154886   -0.0149516380          0.5497
C317       C   -0.2165412958    0.0063739059    0.0003113952          0.5659
H318       H   -0.1769735806    0.0401089942    0.0358169646         -0.4215
H319       H   -0.1214331338    0.0375227615    0.0328330503         -0.4224
H320       H   -0.1281973910   -0.0393304497   -0.0296920194           0.541
H321       H   -0.1826652178   -0.0381601416   -0.0251845743          0.5401
C322       C   -0.2337611277    0.0178674162    0.0243520909          0.5651
C323       C   -0.2653738754    0.0189423144    0.0234554061          0.5664
C324       C   -0.2821153796    0.0101689868   -0.0021961811         -0.4298
C325       C   -0.2636740055    0.0034609981   -0.0268017792         -0.4249
C326       C   -0.2325111891   -0.0003727338   -0.0267134748         -0.4281
C327       C   -0.3144518037    0.0071584041   -0.0038446628         -0.4316
H328       H   -0.2762936992    0.0259282820    0.0455063773          0.5628
H329       H   -0.2226888687    0.0241457214    0.0466384197          0.5608
C330       C   -0.2202223954   -0.0110695515   -0.0596660959         -0.4228
H331       H   -0.2740249316    0.0012231086   -0.0491925125         -0.4171
C332       C   -0.1899345470    0.0032979536   -0.0739463208         -0.4049
H333       H   -0.1825011088    0.0245940565   -0.0616022977         -0.3926
H334       H   -0.1708707447   -0.0140747232   -0.0735951110         -0.4194
H335       H   -0.1938560797    0.0090086923   -0.0987598438         -0.3896
H336       H   -0.2377970192   -0.0060441160   -0.0778287671         -0.4109
H337       H   -0.2188121355   -0.0368121055   -0.0599922806          0.5561
C338       C   -0.3317998928    0.0177719591    0.0208564887         -0.4334
C339       C   -0.3630138306    0.0145606760    0.0227684210          0.5632
C340       C   -0.3791055659   -0.0000000000    0.0000000000          0.5609
C341       C   -0.3629241480   -0.0103805941   -0.0246590626          0.5629
C342       C   -0.3316781175   -0.0072157096   -0.0276356011         -0.4333
H343       H   -0.3748284895    0.0237530951    0.0435899446          0.5619
H344       H   -0.3215719286    0.0299888960    0.0407551487         -0.4318
C345       C   -0.3211585201   -0.0224157640   -0.0591670220         -0.4323
H346       H   -0.3763624714   -0.0219842612   -0.0431145625          0.5612
C347       C   -0.2990489736   -0.0513245815   -0.0562565733          0.5426
H348       H   -0.3120394435   -0.0731488017   -0.0604358100          0.5264
H349       H   -0.2881170016   -0.0529118246   -0.0329885313          0.5313
H350       H   -0.2803387145   -0.0497141879   -0.0739466092          0.5515
H351       H   -0.3118084800   -0.0043984426   -0.0750869472         -0.4107
H352       H   -0.3410347154   -0.0309332469   -0.0731471824         -0.4333
C269       C    0.1208944341   -0.0000000000    0.0000000000          0.5607
C270       C    0.1351974185   -0.0163744875   -0.0230155634         -0.4308
C271       C    0.1667622004   -0.0180000680   -0.0244142705         -0.4306
C272       C    0.1848879233   -0.0027101728   -0.0032215944          0.5617
C273       C    0.1698032013    0.0098739916    0.0215434409          0.5499
C274       C    0.1386718436    0.0117391786    0.0230566047          0.5497
C275       C    0.2165412958    0.0006141010   -0.0063518914          0.5659
H276       H    0.1769735806   -0.0296368420   -0.0448691872         -0.4215
H277       H    0.1214331338   -0.0270585194   -0.0418784353         -0.4224
H278       H    0.1281973910    0.0236889915    0.0432126367           0.541
H279       H    0.1826652178    0.0193983040    0.0414024756          0.5401
C280       C    0.2337611277   -0.0215106684   -0.0212028309          0.5651
C281       C    0.2653738754   -0.0204678955   -0.0221366801          0.5664
C282       C    0.2821153796    0.0036443892   -0.0097442255         -0.4298
C283       C    0.2636740055    0.0270205183    0.0004532819         -0.4249
C284       C    0.2325111891    0.0263784530    0.0042338970         -0.4281
C285       C    0.3144518037    0.0048399334   -0.0065268083         -0.4316
H286       H    0.2762936992   -0.0412760588   -0.0322396208          0.5628
H287       H    0.2226888687   -0.0426541022   -0.0306396087          0.5608
C288       C    0.2202223954    0.0574366431    0.0195859645         -0.4228
H289       H    0.2740249316    0.0488518526    0.0059072651         -0.4171
C290       C    0.1899345470    0.0736453918    0.0074358002         -0.4049
H291       H    0.1825011088    0.0645125219   -0.0154222311         -0.3926
H292       H    0.1708707447    0.0707842819    0.0245748579         -0.4194
H293       H    0.1938560797    0.0990240829    0.0053753401         -0.3896
H294       H    0.2377970192    0.0761353116    0.0172413064         -0.4109
H295       H    0.2188121355    0.0540347896    0.0451048374          0.5561
C296       C    0.3317998928   -0.0180656600   -0.0206026109         -0.4334
C297       C    0.3630138306   -0.0204221040   -0.0177017498          0.5632
C298       C    0.3791055659   -0.0000000000    0.0000000000          0.5609
C299       C    0.3629241480    0.0228976538    0.0138392035          0.5629
C300       C    0.3316781175    0.0263007885    0.0111382871         -0.4333
H301       H    0.3748284895   -0.0396945125   -0.0298100399          0.5619
H302       H    0.3215719286   -0.0359873080   -0.0355700673         -0.4318
C303       C    0.3211585201    0.0553011744    0.0307405772         -0.4323
H304       H    0.3763624714    0.0394800593    0.0279910370          0.5612
C305       C    0.2990489736    0.0482386286    0.0589240988          0.5426
H306       H    0.3120394435    0.0492162143    0.0811233541          0.5264
H307       H    0.2881170016    0.0249857712    0.0571280633          0.5313
H308       H    0.2803387145    0.0659755239    0.0598901639          0.5515
H309       H    0.3118084800    0.0736604496    0.0152162447         -0.4107
H310       H    0.3410347154    0.0679018620    0.0411911787         -0.4333
C227       C   -0.0000000000    0.0000000000   -0.3791055659          0.5607
C228       C   -0.0081629037    0.0270408395   -0.3648025815         -0.4308
C229       C   -0.0082728053    0.0291825247   -0.3332377996         -0.4306
C230       C   -0.0008864656    0.0041155663   -0.3151120767          0.5617
C231       C    0.0109809774   -0.0210008021   -0.3301967987          0.5499
C232       C    0.0110345865   -0.0234019921   -0.3613281564          0.5497
C233       C   -0.0053970133    0.0034052741   -0.2834587042          0.5659
H234       H   -0.0173136093    0.0509099725   -0.3230264194         -0.4215
H235       H   -0.0165288520    0.0470400241   -0.3785668662         -0.4224
H236       H    0.0196473927   -0.0451938077   -0.3718026090           0.541
H237       H    0.0208447010   -0.0406934593   -0.3173347822          0.5401
C238       C   -0.0035839886    0.0299903971   -0.2662388723          0.5651
C239       C   -0.0049608753    0.0297381416   -0.2346261246          0.5664
C240       C   -0.0099346152    0.0030878675   -0.2178846204         -0.4298
C241       C   -0.0161924405   -0.0216360520   -0.2363259945         -0.4249
C242       C   -0.0128107672   -0.0234442511   -0.2674888109         -0.4281
C243       C   -0.0081237038    0.0001721000   -0.1855481963         -0.4316
H244       H   -0.0002012423    0.0523742846   -0.2237063008          0.5628
H245       H    0.0019075752    0.0524835137   -0.2773111313          0.5608
C246       C   -0.0196996164   -0.0573977620   -0.2797776046         -0.4228
H247       H   -0.0252535658   -0.0422333600   -0.2259750684         -0.4171
C248       C   -0.0392319911   -0.0627677125   -0.3100654530         -0.4049
H249       H   -0.0517060437   -0.0415475118   -0.3174988912         -0.3926
H250       H   -0.0239318987   -0.0710042423   -0.3291292553         -0.4194
H251       H   -0.0564057625   -0.0815662507   -0.3061439203         -0.3896
H252       H   -0.0330063529   -0.0707419889   -0.2622029808         -0.4109
H253       H    0.0025555311   -0.0703397051   -0.2811878645          0.5561
C254       C   -0.0052196970    0.0268996359   -0.1682001072         -0.4334
C255       C   -0.0014833269    0.0269854409   -0.1369861694          0.5632
C256       C    0.0000000000    0.0000000000   -0.1208944341          0.5609
C257       C   -0.0030861636   -0.0265763371   -0.1370758520          0.5629
C258       C   -0.0073056112   -0.0276119713   -0.1683218825         -0.4333
H259       H    0.0007504869    0.0496359705   -0.1251715105          0.5619
H260       H   -0.0060732894    0.0502337654   -0.1784280714         -0.4318
C261       C   -0.0095744100   -0.0625422549   -0.1788414799         -0.4323
H262       H   -0.0020569623   -0.0483522714   -0.1236375286          0.5612
C263       C    0.0170292776   -0.0742227621   -0.2009510264          0.5426
H264       H    0.0339779137   -0.0885930906   -0.1879605565          0.5264
H265       H    0.0298525509   -0.0547423930   -0.2118829984          0.5313
H266       H    0.0069286167   -0.0888346540   -0.2196612855          0.5515
H267       H   -0.0330911513   -0.0675453303   -0.1881915200         -0.4107
H268       H   -0.0090319515   -0.0789037383   -0.1589652846         -0.4333
C185       C    0.0000000000   -0.0000000000    0.1208944341          0.5607
C186       C    0.0092946778   -0.0266730007    0.1351974185         -0.4308
C187       C    0.0094946943   -0.0288081557    0.1667622004         -0.4306
C188       C    0.0010590355   -0.0040745737    0.1848879233          0.5617
C189       C   -0.0118558309    0.0205196206    0.1698032013          0.5499
C190       C   -0.0120105357    0.0229164213    0.1386718436          0.5497
C191       C    0.0055356608   -0.0031749178    0.2165412958          0.5659
H192       H    0.0194426817   -0.0501355013    0.1769735806         -0.4215
H193       H    0.0184956101   -0.0463020434    0.1214331338         -0.4224
H194       H   -0.0215336164    0.0443261058    0.1281973910           0.541
H195       H   -0.0225402976    0.0397793184    0.1826652178          0.5401
C196       C    0.0048440684   -0.0298128143    0.2337611277          0.5651
C197       C    0.0062091075   -0.0295027852    0.2653738754          0.5664
C198       C    0.0100558656   -0.0026666593    0.2821153796         -0.4298
C199       C    0.0152667116    0.0222989101    0.2636740055         -0.4249
C200       C    0.0118118744    0.0239630609    0.2325111891         -0.4281
C201       C    0.0081237430    0.0001702408    0.3144518037         -0.4316
H202       H    0.0024071824   -0.0523193239    0.2762936992          0.5628
H203       H    0.0003048375   -0.0525172841    0.2226888687          0.5608
C204       C    0.0172644138    0.0581766103    0.2202223954         -0.4228
H205       H    0.0234521915    0.0432596116    0.2740249316         -0.4171
C206       C    0.0365532589    0.0643645409    0.1899345470         -0.4049
H207       H    0.0499100814    0.0436886080    0.1825011088         -0.3926
H208       H    0.0209198053    0.0719492873    0.1708707447         -0.4194
H209       H    0.0529199527    0.0838697913    0.1938560797         -0.3896
H210       H    0.0299972524    0.0720695024    0.2377970192         -0.4109
H211       H   -0.0055161243    0.0701696317    0.2188121355          0.5561
C212       C    0.0063481355   -0.0266558966    0.3317998928         -0.4334
C213       C    0.0026186959   -0.0268990095    0.3630138306          0.5632
C214       C   -0.0000000000    0.0000000000    0.3791055659          0.5609
C215       C    0.0019639715    0.0266827457    0.3629241480          0.5629
C216       C    0.0061360509    0.0278951930    0.3316781175         -0.4333
H217       H    0.0013409542   -0.0496235291    0.3748284895          0.5619
H218       H    0.0081838545   -0.0499333611    0.3215719286         -0.4318
C219       C    0.0069314967    0.0628900415    0.3211585201         -0.4323
H220       H    0.0000184339    0.0483960009    0.3763624714          0.5612
C221       C   -0.0201405877    0.0734395768    0.2990489736          0.5426
H222       H   -0.0376794908    0.0870832378    0.3120394435          0.5264
H223       H   -0.0321319244    0.0534363530    0.2881170016          0.5313
H224       H   -0.0106643761    0.0884639620    0.2803387145          0.5515
H225       H    0.0302166257    0.0688792528    0.3118084800         -0.4107
H226       H    0.0057003384    0.0792141541    0.3410347154         -0.4333
loop_
_geom_bond_atom_site_label_1
_geom_bond_atom_site_label_2
_geom_bond_distance
_geom_bond_site_symmetry_2
_ccdc_geom_bond_type
Zn1          O5 1.942       .   S
Zn1          O6 1.922       .   S
Zn1         O10 1.922       .   S
Zn1         O17 1.922       .   S
Zn2          O5 1.942       .   S
Zn2          O7 1.922       .   S
Zn2          O9 1.922       .   S
Zn2         O13 1.922       .   S
Zn3          O5 1.942       .   S
Zn3          O8 1.922       .   S
Zn3         O11 1.922       .   S
Zn3         O14 1.922       .   S
Zn4          O5 1.942       .   S
Zn4         O12 1.922       .   S
Zn4         O15 1.922       .   S
Zn4         O16 1.922       .   S
O6          C18 1.304       .   A
O7          C19 1.304       .   A
O8          C20 1.304       .   A
O9          C18 1.304       .   A
O10         C20 1.304       .   A
O11         C19 1.304       .   A
O12         C21 1.304       .   A
O13         C22 1.304       .   A
O14         C21 1.304       .   A
O15         C22 1.304       .   A
O16         C23 1.304       .   A
O17         C23 1.304       .   A
C18        C185 1.540       .   S
C19        C269 1.540       .   S
C20        C424 1.540       .   S
C21        C256 1.540       .   S
C22        C382 1.540       .   S
C23        C311 1.540       .   S
Zn24        O28 1.942       .   S
Zn24        O29 1.922       .   S
Zn24        O33 1.922       .   S
Zn24        O40 1.922       .   S
Zn25        O28 1.942       .   S
Zn25        O30 1.922       .   S
Zn25        O32 1.922       .   S
Zn25        O36 1.922       .   S
Zn26        O28 1.942       .   S
Zn26        O31 1.922       .   S
Zn26        O34 1.922       .   S
Zn26        O37 1.922       .   S
Zn27        O28 1.942       .   S
Zn27        O35 1.922       .   S
Zn27        O38 1.922       .   S
Zn27        O39 1.922       .   S
O29         C41 1.304       .   A
O30         C42 1.304       .   A
O31         C43 1.304       .   A
O32         C41 1.304       .   A
O33         C43 1.304       .   A
O34         C42 1.304       .   A
O35         C44 1.304       .   A
O36         C45 1.304       .   A
O37         C44 1.304       .   A
O38         C45 1.304       .   A
O39         C46 1.304       .   A
O40         C46 1.304       .   A
C41        C521 1.540       .   S
C42        C508 1.540       .   S
C43        C214 1.540   1_655   S
C44        C592 1.540       .   S
C45        C227 1.540   1_656   S
C46        C466 1.540       .   S
Zn47        O51 1.942       .   S
Zn47        O52 1.922       .   S
Zn47        O56 1.922       .   S
Zn47        O63 1.922       .   S
Zn48        O51 1.942       .   S
Zn48        O53 1.922       .   S
Zn48        O55 1.922       .   S
Zn48        O59 1.922       .   S
Zn49        O51 1.942       .   S
Zn49        O54 1.922       .   S
Zn49        O57 1.922       .   S
Zn49        O60 1.922       .   S
Zn50        O51 1.942       .   S
Zn50        O58 1.922       .   S
Zn50        O61 1.922       .   S
Zn50        O62 1.922       .   S
O52         C64 1.304       .   A
O53         C65 1.304       .   A
O54         C66 1.304       .   A
O55         C64 1.304       .   A
O56         C66 1.304       .   A
O57         C65 1.304       .   A
O58         C67 1.304       .   A
O59         C68 1.304       .   A
O60         C67 1.304       .   A
O61         C68 1.304       .   A
O62         C69 1.304       .   A
O63         C69 1.304       .   A
C64        C353 1.540   1_655   S
C65        C605 1.540       .   S
C66        C689 1.540       .   S
C67        C395 1.540   1_665   S
C68        C731 1.540       .   S
C69        C647 1.540       .   S
Zn70        O74 1.942       .   S
Zn70        O75 1.922       .   S
Zn70        O79 1.922       .   S
Zn70        O86 1.922       .   S
Zn71        O74 1.942       .   S
Zn71        O76 1.922       .   S
Zn71        O78 1.922       .   S
Zn71        O82 1.922       .   S
Zn72        O74 1.942       .   S
Zn72        O77 1.922       .   S
Zn72        O80 1.922       .   S
Zn72        O83 1.922       .   S
Zn73        O74 1.942       .   S
Zn73        O81 1.922       .   S
Zn73        O84 1.922       .   S
Zn73        O85 1.922       .   S
O75         C87 1.304       .   A
O76         C88 1.304       .   A
O77         C89 1.304       .   A
O78         C87 1.304       .   A
O79         C89 1.304       .   A
O80         C88 1.304       .   A
O81         C90 1.304       .   A
O82         C91 1.304       .   A
O83         C90 1.304       .   A
O84         C91 1.304       .   A
O85         C92 1.304       .   A
O86         C92 1.304       .   A
C87        C550 1.540       .   S
C88        C634 1.540       .   S
C89        C815 1.540       .   S
C90        C563 1.540   1_565   S
C91        C773 1.540       .   S
C92        C676 1.540   1_556   S
Zn93        O97 1.942       .   S
Zn93        O98 1.922       .   S
Zn93       O102 1.922       .   S
Zn93       O109 1.922       .   S
Zn94        O97 1.942       .   S
Zn94        O99 1.922       .   S
Zn94       O101 1.922       .   S
Zn94       O105 1.922       .   S
Zn95        O97 1.942       .   S
Zn95       O100 1.922       .   S
Zn95       O103 1.922       .   S
Zn95       O106 1.922       .   S
Zn96        O97 1.942       .   S
Zn96       O104 1.922       .   S
Zn96       O107 1.922       .   S
Zn96       O108 1.922       .   S
O98        C110 1.304       .   A
O99        C111 1.304       .   A
O100       C112 1.304       .   A
O101       C110 1.304       .   A
O102       C112 1.304       .   A
O103       C111 1.304       .   A
O104       C113 1.304       .   A
O105       C114 1.304       .   A
O106       C113 1.304       .   A
O107       C114 1.304       .   A
O108       C115 1.304       .   A
O109       C115 1.304       .   A
C110       C298 1.540   1_565   S
C111       C886 1.540       .   S
C112      C1012 1.540       .   S
C113       C340 1.540   1_665   S
C114       C941 1.540       .   S
C115       C899 1.540       .   S
Zn116      O120 1.942       .   S
Zn116      O121 1.922       .   S
Zn116      O125 1.922       .   S
Zn116      O132 1.922       .   S
Zn117      O120 1.942       .   S
Zn117      O122 1.922       .   S
Zn117      O124 1.922       .   S
Zn117      O128 1.922       .   S
Zn118      O120 1.942       .   S
Zn118      O123 1.922       .   S
Zn118      O126 1.922       .   S
Zn118      O129 1.922       .   S
Zn119      O120 1.942       .   S
Zn119      O127 1.922       .   S
Zn119      O130 1.922       .   S
Zn119      O131 1.922       .   S
O121       C133 1.304       .   A
O122       C134 1.304       .   A
O123       C135 1.304       .   A
O124       C133 1.304       .   A
O125       C135 1.304       .   A
O126       C134 1.304       .   A
O127       C136 1.304       .   A
O128       C137 1.304       .   A
O129       C136 1.304       .   A
O130       C137 1.304       .   A
O131       C138 1.304       .   A
O132       C138 1.304       .   A
C133       C437 1.540   1_465   S
C134       C857 1.540       .   S
C135      C1025 1.540       .   S
C136       C479 1.540   1_565   S
C137      C1067 1.540       .   S
C138       C928 1.540   1_556   S
Zn139      O143 1.942       .   S
Zn139      O144 1.922       .   S
Zn139      O148 1.922       .   S
Zn139      O155 1.922       .   S
Zn140      O143 1.942       .   S
Zn140      O145 1.922       .   S
Zn140      O147 1.922       .   S
Zn140      O151 1.922       .   S
Zn141      O143 1.942       .   S
Zn141      O146 1.922       .   S
Zn141      O149 1.922       .   S
Zn141      O152 1.922       .   S
Zn142      O143 1.942       .   S
Zn142      O150 1.922       .   S
Zn142      O153 1.922       .   S
Zn142      O154 1.922       .   S
O144       C156 1.304       .   A
O145       C157 1.304       .   A
O146       C158 1.304       .   A
O147       C156 1.304       .   A
O148       C158 1.304       .   A
O149       C157 1.304       .   A
O150       C159 1.304       .   A
O151       C160 1.304       .   A
O152       C159 1.304       .   A
O153       C160 1.304       .   A
O154       C161 1.304       .   A
O155       C161 1.304       .   A
C156       C718 1.540   1_455   S
C157       C970 1.540   1_545   S
C158      C1151 1.540       .   S
C159       C760 1.540       .   S
C160      C1109 1.540       .   S
C161       C983 1.540       .   S
Zn162      O166 1.942       .   S
Zn162      O167 1.922       .   S
Zn162      O171 1.922       .   S
Zn162      O178 1.922       .   S
Zn163      O166 1.942       .   S
Zn163      O168 1.922       .   S
Zn163      O170 1.922       .   S
Zn163      O174 1.922       .   S
Zn164      O166 1.942       .   S
Zn164      O169 1.922       .   S
Zn164      O172 1.922       .   S
Zn164      O175 1.922       .   S
Zn165      O166 1.942       .   S
Zn165      O173 1.922       .   S
Zn165      O176 1.922       .   S
Zn165      O177 1.922       .   S
O167       C179 1.304       .   A
O168       C180 1.304       .   A
O169       C181 1.304       .   A
O170       C179 1.304       .   A
O171       C181 1.304       .   A
O172       C180 1.304       .   A
O173       C182 1.304       .   A
O174       C183 1.304       .   A
O175       C182 1.304       .   A
O176       C183 1.304       .   A
O177       C184 1.304       .   A
O178       C184 1.304       .   A
C179      C1096 1.540       .   S
C180      C1138 1.540       .   S
C181       C844 1.540       .   S
C182      C1054 1.540   1_545   S
C183       C802 1.540   1_455   S
C184      C1180 1.540   1_556   S
C1151     C1152 0.029       .   A
C1151     C1156 0.029       .   A
C1152     C1153 0.029       .   A
C1152     H1159 0.024       .   A
C1153     C1154 0.030       .   A
C1153     H1158 0.024       .   A
C1154     C1155 0.029       .   A
C1154     C1157 0.030       .   A
C1155     C1156 0.029       .   A
C1155     H1161 0.024       .   A
C1156     H1160 0.024       .   A
C1157     C1162 0.029       .   A
C1157     C1166 0.030       .   A
C1162     C1163 0.029       .   A
C1162     H1169 0.024       .   A
C1163     C1164 0.030       .   A
C1163     H1168 0.024       .   A
C1164     C1165 0.029       .   A
C1164     C1167 0.030       .   A
C1165     C1166 0.029       .   A
C1165     H1171 0.023       .   A
C1166     C1170 0.034       .   A
C1167     C1178 0.030       .   A
C1167     C1182 0.030       .   A
C1170     C1172 0.034       .   A
C1170     H1176 0.024       .   A
C1170     H1177 0.024       .   A
C1172     H1173 0.024       .   A
C1172     H1174 0.024       .   A
C1172     H1175 0.024       .   A
C1178     C1179 0.029       .   A
C1178     H1184 0.024       .   A
C1179     C1180 0.029       .   A
C1179     H1183 0.024       .   A
C1180     C1181 0.029       .   A
C1181     C1182 0.029       .   A
C1181     H1186 0.024       .   A
C1182     C1185 0.034       .   A
C1185     C1187 0.034       .   A
C1185     H1191 0.024       .   A
C1185     H1192 0.024       .   A
C1187     H1188 0.024       .   A
C1187     H1189 0.024       .   A
C1187     H1190 0.024       .   A
C1109     C1110 0.029       .   A
C1109     C1114 0.029       .   A
C1110     C1111 0.029       .   A
C1110     H1117 0.024       .   A
C1111     C1112 0.030       .   A
C1111     H1116 0.024       .   A
C1112     C1113 0.029       .   A
C1112     C1115 0.030       .   A
C1113     C1114 0.029       .   A
C1113     H1119 0.024       .   A
C1114     H1118 0.024       .   A
C1115     C1120 0.029       .   A
C1115     C1124 0.030       .   A
C1120     C1121 0.029       .   A
C1120     H1127 0.024       .   A
C1121     C1122 0.030       .   A
C1121     H1126 0.024       .   A
C1122     C1123 0.029       .   A
C1122     C1125 0.030       .   A
C1123     C1124 0.029       .   A
C1123     H1129 0.023       .   A
C1124     C1128 0.034       .   A
C1125     C1136 0.030       .   A
C1125     C1140 0.030       .   A
C1128     C1130 0.034       .   A
C1128     H1134 0.024       .   A
C1128     H1135 0.024       .   A
C1130     H1131 0.024       .   A
C1130     H1132 0.024       .   A
C1130     H1133 0.024       .   A
C1136     C1137 0.029       .   A
C1136     H1142 0.024       .   A
C1137     C1138 0.029       .   A
C1137     H1141 0.024       .   A
C1138     C1139 0.029       .   A
C1139     C1140 0.029       .   A
C1139     H1144 0.024       .   A
C1140     C1143 0.034       .   A
C1143     C1145 0.034       .   A
C1143     H1149 0.024       .   A
C1143     H1150 0.024       .   A
C1145     H1146 0.024       .   A
C1145     H1147 0.024       .   A
C1145     H1148 0.024       .   A
C1067     C1068 0.029       .   A
C1067     C1072 0.029       .   A
C1068     C1069 0.029       .   A
C1068     H1075 0.024       .   A
C1069     C1070 0.030       .   A
C1069     H1074 0.024       .   A
C1070     C1071 0.029       .   A
C1070     C1073 0.030       .   A
C1071     C1072 0.029       .   A
C1071     H1077 0.024       .   A
C1072     H1076 0.024       .   A
C1073     C1078 0.029       .   A
C1073     C1082 0.030       .   A
C1078     C1079 0.029       .   A
C1078     H1085 0.024       .   A
C1079     C1080 0.030       .   A
C1079     H1084 0.024       .   A
C1080     C1081 0.029       .   A
C1080     C1083 0.030       .   A
C1081     C1082 0.029       .   A
C1081     H1087 0.023       .   A
C1082     C1086 0.034       .   A
C1083     C1094 0.030       .   A
C1083     C1098 0.030       .   A
C1086     C1088 0.034       .   A
C1086     H1092 0.024       .   A
C1086     H1093 0.024       .   A
C1088     H1089 0.024       .   A
C1088     H1090 0.024       .   A
C1088     H1091 0.024       .   A
C1094     C1095 0.029       .   A
C1094     H1100 0.024       .   A
C1095     C1096 0.029       .   A
C1095     H1099 0.024       .   A
C1096     C1097 0.029       .   A
C1097     C1098 0.029       .   A
C1097     H1102 0.024       .   A
C1098     C1101 0.034       .   A
C1101     C1103 0.034       .   A
C1101     H1107 0.024       .   A
C1101     H1108 0.024       .   A
C1103     H1104 0.024       .   A
C1103     H1105 0.024       .   A
C1103     H1106 0.024       .   A
C1025     C1026 0.029       .   A
C1025     C1030 0.029       .   A
C1026     C1027 0.029       .   A
C1026     H1033 0.024       .   A
C1027     C1028 0.030       .   A
C1027     H1032 0.024       .   A
C1028     C1029 0.029       .   A
C1028     C1031 0.030       .   A
C1029     C1030 0.029       .   A
C1029     H1035 0.024       .   A
C1030     H1034 0.024       .   A
C1031     C1036 0.029       .   A
C1031     C1040 0.030       .   A
C1036     C1037 0.029       .   A
C1036     H1043 0.024       .   A
C1037     C1038 0.030       .   A
C1037     H1042 0.024       .   A
C1038     C1039 0.029       .   A
C1038     C1041 0.030       .   A
C1039     C1040 0.029       .   A
C1039     H1045 0.023       .   A
C1040     C1044 0.034       .   A
C1041     C1052 0.030       .   A
C1041     C1056 0.030       .   A
C1044     C1046 0.034       .   A
C1044     H1050 0.024       .   A
C1044     H1051 0.024       .   A
C1046     H1047 0.024       .   A
C1046     H1048 0.024       .   A
C1046     H1049 0.024       .   A
C1052     C1053 0.029       .   A
C1052     H1058 0.024       .   A
C1053     C1054 0.029       .   A
C1053     H1057 0.024       .   A
C1054     C1055 0.029       .   A
C1055     C1056 0.029       .   A
C1055     H1060 0.024       .   A
C1056     C1059 0.034       .   A
C1059     C1061 0.034       .   A
C1059     H1065 0.024       .   A
C1059     H1066 0.024       .   A
C1061     H1062 0.024       .   A
C1061     H1063 0.024       .   A
C1061     H1064 0.024       .   A
C983       C984 0.029       .   A
C983       C988 0.029       .   A
C984       C985 0.029       .   A
C984       H991 0.024       .   A
C985       C986 0.030       .   A
C985       H990 0.024       .   A
C986       C987 0.029       .   A
C986       C989 0.030       .   A
C987       C988 0.029       .   A
C987       H993 0.024       .   A
C988       H992 0.024       .   A
C989       C994 0.029       .   A
C989       C998 0.030       .   A
C994       C995 0.029       .   A
C994      H1001 0.024       .   A
C995       C996 0.030       .   A
C995      H1000 0.024       .   A
C996       C997 0.029       .   A
C996       C999 0.030       .   A
C997       C998 0.029       .   A
C997      H1003 0.023       .   A
C998      C1002 0.034       .   A
C999      C1010 0.030       .   A
C999      C1014 0.030       .   A
C1002     C1004 0.034       .   A
C1002     H1008 0.024       .   A
C1002     H1009 0.024       .   A
C1004     H1005 0.024       .   A
C1004     H1006 0.024       .   A
C1004     H1007 0.024       .   A
C1010     C1011 0.029       .   A
C1010     H1016 0.024       .   A
C1011     C1012 0.029       .   A
C1011     H1015 0.024       .   A
C1012     C1013 0.029       .   A
C1013     C1014 0.029       .   A
C1013     H1018 0.024       .   A
C1014     C1017 0.034       .   A
C1017     C1019 0.034       .   A
C1017     H1023 0.024       .   A
C1017     H1024 0.024       .   A
C1019     H1020 0.024       .   A
C1019     H1021 0.024       .   A
C1019     H1022 0.024       .   A
C941       C942 0.029       .   A
C941       C946 0.029       .   A
C942       C943 0.029       .   A
C942       H949 0.024       .   A
C943       C944 0.030       .   A
C943       H948 0.024       .   A
C944       C945 0.029       .   A
C944       C947 0.030       .   A
C945       C946 0.029       .   A
C945       H951 0.024       .   A
C946       H950 0.024       .   A
C947       C952 0.029       .   A
C947       C956 0.030       .   A
C952       C953 0.029       .   A
C952       H959 0.024       .   A
C953       C954 0.030       .   A
C953       H958 0.024       .   A
C954       C955 0.029       .   A
C954       C957 0.030       .   A
C955       C956 0.029       .   A
C955       H961 0.023       .   A
C956       C960 0.034       .   A
C957       C968 0.030       .   A
C957       C972 0.030       .   A
C960       C962 0.034       .   A
C960       H966 0.024       .   A
C960       H967 0.024       .   A
C962       H963 0.024       .   A
C962       H964 0.024       .   A
C962       H965 0.024       .   A
C968       C969 0.029       .   A
C968       H974 0.024       .   A
C969       C970 0.029       .   A
C969       H973 0.024       .   A
C970       C971 0.029       .   A
C971       C972 0.029       .   A
C971       H976 0.024       .   A
C972       C975 0.034       .   A
C975       C977 0.034       .   A
C975       H981 0.024       .   A
C975       H982 0.024       .   A
C977       H978 0.024       .   A
C977       H979 0.024       .   A
C977       H980 0.024       .   A
C899       C900 0.029       .   A
C899       C904 0.029       .   A
C900       C901 0.029       .   A
C900       H907 0.024       .   A
C901       C902 0.030       .   A
C901       H906 0.024       .   A
C902       C903 0.029       .   A
C902       C905 0.030       .   A
C903       C904 0.029       .   A
C903       H909 0.024       .   A
C904       H908 0.024       .   A
C905       C910 0.029       .   A
C905       C914 0.030       .   A
C910       C911 0.029       .   A
C910       H917 0.024       .   A
C911       C912 0.030       .   A
C911       H916 0.024       .   A
C912       C913 0.029       .   A
C912       C915 0.030       .   A
C913       C914 0.029       .   A
C913       H919 0.023       .   A
C914       C918 0.034       .   A
C915       C926 0.030       .   A
C915       C930 0.030       .   A
C918       C920 0.034       .   A
C918       H924 0.024       .   A
C918       H925 0.024       .   A
C920       H921 0.024       .   A
C920       H922 0.024       .   A
C920       H923 0.024       .   A
C926       C927 0.029       .   A
C926       H932 0.024       .   A
C927       C928 0.029       .   A
C927       H931 0.024       .   A
C928       C929 0.029       .   A
C929       C930 0.029       .   A
C929       H934 0.024       .   A
C930       C933 0.034       .   A
C933       C935 0.034       .   A
C933       H939 0.024       .   A
C933       H940 0.024       .   A
C935       H936 0.024       .   A
C935       H937 0.024       .   A
C935       H938 0.024       .   A
C857       C858 0.029       .   A
C857       C862 0.029       .   A
C858       C859 0.029       .   A
C858       H865 0.024       .   A
C859       C860 0.030       .   A
C859       H864 0.024       .   A
C860       C861 0.029       .   A
C860       C863 0.030       .   A
C861       C862 0.029       .   A
C861       H867 0.024       .   A
C862       H866 0.024       .   A
C863       C868 0.029       .   A
C863       C872 0.030       .   A
C868       C869 0.029       .   A
C868       H875 0.024       .   A
C869       C870 0.030       .   A
C869       H874 0.024       .   A
C870       C871 0.029       .   A
C870       C873 0.030       .   A
C871       C872 0.029       .   A
C871       H877 0.023       .   A
C872       C876 0.034       .   A
C873       C884 0.030       .   A
C873       C888 0.030       .   A
C876       C878 0.034       .   A
C876       H882 0.024       .   A
C876       H883 0.024       .   A
C878       H879 0.024       .   A
C878       H880 0.024       .   A
C878       H881 0.024       .   A
C884       C885 0.029       .   A
C884       H890 0.024       .   A
C885       C886 0.029       .   A
C885       H889 0.024       .   A
C886       C887 0.029       .   A
C887       C888 0.029       .   A
C887       H892 0.024       .   A
C888       C891 0.034       .   A
C891       C893 0.034       .   A
C891       H897 0.024       .   A
C891       H898 0.024       .   A
C893       H894 0.024       .   A
C893       H895 0.024       .   A
C893       H896 0.024       .   A
C815       C816 0.029       .   A
C815       C820 0.029       .   A
C816       C817 0.029       .   A
C816       H823 0.024       .   A
C817       C818 0.030       .   A
C817       H822 0.024       .   A
C818       C819 0.029       .   A
C818       C821 0.030       .   A
C819       C820 0.029       .   A
C819       H825 0.024       .   A
C820       H824 0.024       .   A
C821       C826 0.029       .   A
C821       C830 0.030       .   A
C826       C827 0.029       .   A
C826       H833 0.024       .   A
C827       C828 0.030       .   A
C827       H832 0.024       .   A
C828       C829 0.029       .   A
C828       C831 0.030       .   A
C829       C830 0.029       .   A
C829       H835 0.023       .   A
C830       C834 0.034       .   A
C831       C842 0.030       .   A
C831       C846 0.030       .   A
C834       C836 0.034       .   A
C834       H840 0.024       .   A
C834       H841 0.024       .   A
C836       H837 0.024       .   A
C836       H838 0.024       .   A
C836       H839 0.024       .   A
C842       C843 0.029       .   A
C842       H848 0.024       .   A
C843       C844 0.029       .   A
C843       H847 0.024       .   A
C844       C845 0.029       .   A
C845       C846 0.029       .   A
C845       H850 0.024       .   A
C846       C849 0.034       .   A
C849       C851 0.034       .   A
C849       H855 0.024       .   A
C849       H856 0.024       .   A
C851       H852 0.024       .   A
C851       H853 0.024       .   A
C851       H854 0.024       .   A
C773       C774 0.029       .   A
C773       C778 0.029       .   A
C774       C775 0.029       .   A
C774       H781 0.024       .   A
C775       C776 0.030       .   A
C775       H780 0.024       .   A
C776       C777 0.029       .   A
C776       C779 0.030       .   A
C777       C778 0.029       .   A
C777       H783 0.024       .   A
C778       H782 0.024       .   A
C779       C784 0.029       .   A
C779       C788 0.030       .   A
C784       C785 0.029       .   A
C784       H791 0.024       .   A
C785       C786 0.030       .   A
C785       H790 0.024       .   A
C786       C787 0.029       .   A
C786       C789 0.030       .   A
C787       C788 0.029       .   A
C787       H793 0.023       .   A
C788       C792 0.034       .   A
C789       C800 0.030       .   A
C789       C804 0.030       .   A
C792       C794 0.034       .   A
C792       H798 0.024       .   A
C792       H799 0.024       .   A
C794       H795 0.024       .   A
C794       H796 0.024       .   A
C794       H797 0.024       .   A
C800       C801 0.029       .   A
C800       H806 0.024       .   A
C801       C802 0.029       .   A
C801       H805 0.024       .   A
C802       C803 0.029       .   A
C803       C804 0.029       .   A
C803       H808 0.024       .   A
C804       C807 0.034       .   A
C807       C809 0.034       .   A
C807       H813 0.024       .   A
C807       H814 0.024       .   A
C809       H810 0.024       .   A
C809       H811 0.024       .   A
C809       H812 0.024       .   A
C731       C732 0.029       .   A
C731       C736 0.029       .   A
C732       C733 0.029       .   A
C732       H739 0.024       .   A
C733       C734 0.030       .   A
C733       H738 0.024       .   A
C734       C735 0.029       .   A
C734       C737 0.030       .   A
C735       C736 0.029       .   A
C735       H741 0.024       .   A
C736       H740 0.024       .   A
C737       C742 0.029       .   A
C737       C746 0.030       .   A
C742       C743 0.029       .   A
C742       H749 0.024       .   A
C743       C744 0.030       .   A
C743       H748 0.024       .   A
C744       C745 0.029       .   A
C744       C747 0.030       .   A
C745       C746 0.029       .   A
C745       H751 0.023       .   A
C746       C750 0.034       .   A
C747       C758 0.030       .   A
C747       C762 0.030       .   A
C750       C752 0.034       .   A
C750       H756 0.024       .   A
C750       H757 0.024       .   A
C752       H753 0.024       .   A
C752       H754 0.024       .   A
C752       H755 0.024       .   A
C758       C759 0.029       .   A
C758       H764 0.024       .   A
C759       C760 0.029       .   A
C759       H763 0.024       .   A
C760       C761 0.029       .   A
C761       C762 0.029       .   A
C761       H766 0.024       .   A
C762       C765 0.034       .   A
C765       C767 0.034       .   A
C765       H771 0.024       .   A
C765       H772 0.024       .   A
C767       H768 0.024       .   A
C767       H769 0.024       .   A
C767       H770 0.024       .   A
C689       C690 0.029       .   A
C689       C694 0.029       .   A
C690       C691 0.029       .   A
C690       H697 0.024       .   A
C691       C692 0.030       .   A
C691       H696 0.024       .   A
C692       C693 0.029       .   A
C692       C695 0.030       .   A
C693       C694 0.029       .   A
C693       H699 0.024       .   A
C694       H698 0.024       .   A
C695       C700 0.029       .   A
C695       C704 0.030       .   A
C700       C701 0.029       .   A
C700       H707 0.024       .   A
C701       C702 0.030       .   A
C701       H706 0.024       .   A
C702       C703 0.029       .   A
C702       C705 0.030       .   A
C703       C704 0.029       .   A
C703       H709 0.023       .   A
C704       C708 0.034       .   A
C705       C716 0.030       .   A
C705       C720 0.030       .   A
C708       C710 0.034       .   A
C708       H714 0.024       .   A
C708       H715 0.024       .   A
C710       H711 0.024       .   A
C710       H712 0.024       .   A
C710       H713 0.024       .   A
C716       C717 0.029       .   A
C716       H722 0.024       .   A
C717       C718 0.029       .   A
C717       H721 0.024       .   A
C718       C719 0.029       .   A
C719       C720 0.029       .   A
C719       H724 0.024       .   A
C720       C723 0.034       .   A
C723       C725 0.034       .   A
C723       H729 0.024       .   A
C723       H730 0.024       .   A
C725       H726 0.024       .   A
C725       H727 0.024       .   A
C725       H728 0.024       .   A
C647       C648 0.029       .   A
C647       C652 0.029       .   A
C648       C649 0.029       .   A
C648       H655 0.024       .   A
C649       C650 0.030       .   A
C649       H654 0.024       .   A
C650       C651 0.029       .   A
C650       C653 0.030       .   A
C651       C652 0.029       .   A
C651       H657 0.024       .   A
C652       H656 0.024       .   A
C653       C658 0.029       .   A
C653       C662 0.030       .   A
C658       C659 0.029       .   A
C658       H665 0.024       .   A
C659       C660 0.030       .   A
C659       H664 0.024       .   A
C660       C661 0.029       .   A
C660       C663 0.030       .   A
C661       C662 0.029       .   A
C661       H667 0.023       .   A
C662       C666 0.034       .   A
C663       C674 0.030       .   A
C663       C678 0.030       .   A
C666       C668 0.034       .   A
C666       H672 0.024       .   A
C666       H673 0.024       .   A
C668       H669 0.024       .   A
C668       H670 0.024       .   A
C668       H671 0.024       .   A
C674       C675 0.029       .   A
C674       H680 0.024       .   A
C675       C676 0.029       .   A
C675       H679 0.024       .   A
C676       C677 0.029       .   A
C677       C678 0.029       .   A
C677       H682 0.024       .   A
C678       C681 0.034       .   A
C681       C683 0.034       .   A
C681       H687 0.024       .   A
C681       H688 0.024       .   A
C683       H684 0.024       .   A
C683       H685 0.024       .   A
C683       H686 0.024       .   A
C605       C606 0.029       .   A
C605       C610 0.029       .   A
C606       C607 0.029       .   A
C606       H613 0.024       .   A
C607       C608 0.030       .   A
C607       H612 0.024       .   A
C608       C609 0.029       .   A
C608       C611 0.030       .   A
C609       C610 0.029       .   A
C609       H615 0.024       .   A
C610       H614 0.024       .   A
C611       C616 0.029       .   A
C611       C620 0.030       .   A
C616       C617 0.029       .   A
C616       H623 0.024       .   A
C617       C618 0.030       .   A
C617       H622 0.024       .   A
C618       C619 0.029       .   A
C618       C621 0.030       .   A
C619       C620 0.029       .   A
C619       H625 0.023       .   A
C620       C624 0.034       .   A
C621       C632 0.030       .   A
C621       C636 0.030       .   A
C624       C626 0.034       .   A
C624       H630 0.024       .   A
C624       H631 0.024       .   A
C626       H627 0.024       .   A
C626       H628 0.024       .   A
C626       H629 0.024       .   A
C632       C633 0.029       .   A
C632       H638 0.024       .   A
C633       C634 0.029       .   A
C633       H637 0.024       .   A
C634       C635 0.029       .   A
C635       C636 0.029       .   A
C635       H640 0.024       .   A
C636       C639 0.034       .   A
C639       C641 0.034       .   A
C639       H645 0.024       .   A
C639       H646 0.024       .   A
C641       H642 0.024       .   A
C641       H643 0.024       .   A
C641       H644 0.024       .   A
C563       C564 0.029       .   A
C563       C568 0.029       .   A
C564       C565 0.029       .   A
C564       H571 0.024       .   A
C565       C566 0.030       .   A
C565       H570 0.024       .   A
C566       C567 0.029       .   A
C566       C569 0.030       .   A
C567       C568 0.029       .   A
C567       H573 0.024       .   A
C568       H572 0.024       .   A
C569       C574 0.029       .   A
C569       C578 0.030       .   A
C574       C575 0.029       .   A
C574       H581 0.024       .   A
C575       C576 0.030       .   A
C575       H580 0.024       .   A
C576       C577 0.029       .   A
C576       C579 0.030       .   A
C577       C578 0.029       .   A
C577       H583 0.023       .   A
C578       C582 0.034       .   A
C579       C590 0.030       .   A
C579       C594 0.030       .   A
C582       C584 0.034       .   A
C582       H588 0.024       .   A
C582       H589 0.024       .   A
C584       H585 0.024       .   A
C584       H586 0.024       .   A
C584       H587 0.024       .   A
C590       C591 0.029       .   A
C590       H596 0.024       .   A
C591       C592 0.029       .   A
C591       H595 0.024       .   A
C592       C593 0.029       .   A
C593       C594 0.029       .   A
C593       H598 0.024       .   A
C594       C597 0.034       .   A
C597       C599 0.034       .   A
C597       H603 0.024       .   A
C597       H604 0.024       .   A
C599       H600 0.024       .   A
C599       H601 0.024       .   A
C599       H602 0.024       .   A
C521       C522 0.029       .   A
C521       C526 0.029       .   A
C522       C523 0.029       .   A
C522       H529 0.024       .   A
C523       C524 0.030       .   A
C523       H528 0.024       .   A
C524       C525 0.029       .   A
C524       C527 0.030       .   A
C525       C526 0.029       .   A
C525       H531 0.024       .   A
C526       H530 0.024       .   A
C527       C532 0.029       .   A
C527       C536 0.030       .   A
C532       C533 0.029       .   A
C532       H539 0.024       .   A
C533       C534 0.030       .   A
C533       H538 0.024       .   A
C534       C535 0.029       .   A
C534       C537 0.030       .   A
C535       C536 0.029       .   A
C535       H541 0.023       .   A
C536       C540 0.034       .   A
C537       C548 0.030       .   A
C537       C552 0.030       .   A
C540       C542 0.034       .   A
C540       H546 0.024       .   A
C540       H547 0.024       .   A
C542       H543 0.024       .   A
C542       H544 0.024       .   A
C542       H545 0.024       .   A
C548       C549 0.029       .   A
C548       H554 0.024       .   A
C549       C550 0.029       .   A
C549       H553 0.024       .   A
C550       C551 0.029       .   A
C551       C552 0.029       .   A
C551       H556 0.024       .   A
C552       C555 0.034       .   A
C555       C557 0.034       .   A
C555       H561 0.024       .   A
C555       H562 0.024       .   A
C557       H558 0.024       .   A
C557       H559 0.024       .   A
C557       H560 0.024       .   A
C479       C480 0.029       .   A
C479       C484 0.029       .   A
C480       C481 0.029       .   A
C480       H487 0.024       .   A
C481       C482 0.030       .   A
C481       H486 0.024       .   A
C482       C483 0.029       .   A
C482       C485 0.030       .   A
C483       C484 0.029       .   A
C483       H489 0.024       .   A
C484       H488 0.024       .   A
C485       C490 0.029       .   A
C485       C494 0.030       .   A
C490       C491 0.029       .   A
C490       H497 0.024       .   A
C491       C492 0.030       .   A
C491       H496 0.024       .   A
C492       C493 0.029       .   A
C492       C495 0.030       .   A
C493       C494 0.029       .   A
C493       H499 0.023       .   A
C494       C498 0.034       .   A
C495       C506 0.030       .   A
C495       C510 0.030       .   A
C498       C500 0.034       .   A
C498       H504 0.024       .   A
C498       H505 0.024       .   A
C500       H501 0.024       .   A
C500       H502 0.024       .   A
C500       H503 0.024       .   A
C506       C507 0.029       .   A
C506       H512 0.024       .   A
C507       C508 0.029       .   A
C507       H511 0.024       .   A
C508       C509 0.029       .   A
C509       C510 0.029       .   A
C509       H514 0.024       .   A
C510       C513 0.034       .   A
C513       C515 0.034       .   A
C513       H519 0.024       .   A
C513       H520 0.024       .   A
C515       H516 0.024       .   A
C515       H517 0.024       .   A
C515       H518 0.024       .   A
C437       C438 0.029       .   A
C437       C442 0.029       .   A
C438       C439 0.029       .   A
C438       H445 0.024       .   A
C439       C440 0.030       .   A
C439       H444 0.024       .   A
C440       C441 0.029       .   A
C440       C443 0.030       .   A
C441       C442 0.029       .   A
C441       H447 0.024       .   A
C442       H446 0.024       .   A
C443       C448 0.029       .   A
C443       C452 0.030       .   A
C448       C449 0.029       .   A
C448       H455 0.024       .   A
C449       C450 0.030       .   A
C449       H454 0.024       .   A
C450       C451 0.029       .   A
C450       C453 0.030       .   A
C451       C452 0.029       .   A
C451       H457 0.023       .   A
C452       C456 0.034       .   A
C453       C464 0.030       .   A
C453       C468 0.030       .   A
C456       C458 0.034       .   A
C456       H462 0.024       .   A
C456       H463 0.024       .   A
C458       H459 0.024       .   A
C458       H460 0.024       .   A
C458       H461 0.024       .   A
C464       C465 0.029       .   A
C464       H470 0.024       .   A
C465       C466 0.029       .   A
C465       H469 0.024       .   A
C466       C467 0.029       .   A
C467       C468 0.029       .   A
C467       H472 0.024       .   A
C468       C471 0.034       .   A
C471       C473 0.034       .   A
C471       H477 0.024       .   A
C471       H478 0.024       .   A
C473       H474 0.024       .   A
C473       H475 0.024       .   A
C473       H476 0.024       .   A
C395       C396 0.029       .   A
C395       C400 0.029       .   A
C396       C397 0.029       .   A
C396       H403 0.024       .   A
C397       C398 0.030       .   A
C397       H402 0.024       .   A
C398       C399 0.029       .   A
C398       C401 0.030       .   A
C399       C400 0.029       .   A
C399       H405 0.024       .   A
C400       H404 0.024       .   A
C401       C406 0.029       .   A
C401       C410 0.030       .   A
C406       C407 0.029       .   A
C406       H413 0.024       .   A
C407       C408 0.030       .   A
C407       H412 0.024       .   A
C408       C409 0.029       .   A
C408       C411 0.030       .   A
C409       C410 0.029       .   A
C409       H415 0.023       .   A
C410       C414 0.034       .   A
C411       C422 0.030       .   A
C411       C426 0.030       .   A
C414       C416 0.034       .   A
C414       H420 0.024       .   A
C414       H421 0.024       .   A
C416       H417 0.024       .   A
C416       H418 0.024       .   A
C416       H419 0.024       .   A
C422       C423 0.029       .   A
C422       H428 0.024       .   A
C423       C424 0.029       .   A
C423       H427 0.024       .   A
C424       C425 0.029       .   A
C425       C426 0.029       .   A
C425       H430 0.024       .   A
C426       C429 0.034       .   A
C429       C431 0.034       .   A
C429       H435 0.024       .   A
C429       H436 0.024       .   A
C431       H432 0.024       .   A
C431       H433 0.024       .   A
C431       H434 0.024       .   A
C353       C354 0.029       .   A
C353       C358 0.029       .   A
C354       C355 0.029       .   A
C354       H361 0.024       .   A
C355       C356 0.030       .   A
C355       H360 0.024       .   A
C356       C357 0.029       .   A
C356       C359 0.030       .   A
C357       C358 0.029       .   A
C357       H363 0.024       .   A
C358       H362 0.024       .   A
C359       C364 0.029       .   A
C359       C368 0.030       .   A
C364       C365 0.029       .   A
C364       H371 0.024       .   A
C365       C366 0.030       .   A
C365       H370 0.024       .   A
C366       C367 0.029       .   A
C366       C369 0.030       .   A
C367       C368 0.029       .   A
C367       H373 0.023       .   A
C368       C372 0.034       .   A
C369       C380 0.030       .   A
C369       C384 0.030       .   A
C372       C374 0.034       .   A
C372       H378 0.024       .   A
C372       H379 0.024       .   A
C374       H375 0.024       .   A
C374       H376 0.024       .   A
C374       H377 0.024       .   A
C380       C381 0.029       .   A
C380       H386 0.024       .   A
C381       C382 0.029       .   A
C381       H385 0.024       .   A
C382       C383 0.029       .   A
C383       C384 0.029       .   A
C383       H388 0.024       .   A
C384       C387 0.034       .   A
C387       C389 0.034       .   A
C387       H393 0.024       .   A
C387       H394 0.024       .   A
C389       H390 0.024       .   A
C389       H391 0.024       .   A
C389       H392 0.024       .   A
C311       C312 0.029       .   A
C311       C316 0.029       .   A
C312       C313 0.029       .   A
C312       H319 0.024       .   A
C313       C314 0.030       .   A
C313       H318 0.024       .   A
C314       C315 0.029       .   A
C314       C317 0.030       .   A
C315       C316 0.029       .   A
C315       H321 0.024       .   A
C316       H320 0.024       .   A
C317       C322 0.029       .   A
C317       C326 0.030       .   A
C322       C323 0.029       .   A
C322       H329 0.024       .   A
C323       C324 0.030       .   A
C323       H328 0.024       .   A
C324       C325 0.029       .   A
C324       C327 0.030       .   A
C325       C326 0.029       .   A
C325       H331 0.023       .   A
C326       C330 0.034       .   A
C327       C338 0.030       .   A
C327       C342 0.030       .   A
C330       C332 0.034       .   A
C330       H336 0.024       .   A
C330       H337 0.024       .   A
C332       H333 0.024       .   A
C332       H334 0.024       .   A
C332       H335 0.024       .   A
C338       C339 0.029       .   A
C338       H344 0.024       .   A
C339       C340 0.029       .   A
C339       H343 0.024       .   A
C340       C341 0.029       .   A
C341       C342 0.029       .   A
C341       H346 0.024       .   A
C342       C345 0.034       .   A
C345       C347 0.034       .   A
C345       H351 0.024       .   A
C345       H352 0.024       .   A
C347       H348 0.024       .   A
C347       H349 0.024       .   A
C347       H350 0.024       .   A
C269       C270 0.029       .   A
C269       C274 0.029       .   A
C270       C271 0.029       .   A
C270       H277 0.024       .   A
C271       C272 0.030       .   A
C271       H276 0.024       .   A
C272       C273 0.029       .   A
C272       C275 0.030       .   A
C273       C274 0.029       .   A
C273       H279 0.024       .   A
C274       H278 0.024       .   A
C275       C280 0.029       .   A
C275       C284 0.030       .   A
C280       C281 0.029       .   A
C280       H287 0.024       .   A
C281       C282 0.030       .   A
C281       H286 0.024       .   A
C282       C283 0.029       .   A
C282       C285 0.030       .   A
C283       C284 0.029       .   A
C283       H289 0.023       .   A
C284       C288 0.034       .   A
C285       C296 0.030       .   A
C285       C300 0.030       .   A
C288       C290 0.034       .   A
C288       H294 0.024       .   A
C288       H295 0.024       .   A
C290       H291 0.024       .   A
C290       H292 0.024       .   A
C290       H293 0.024       .   A
C296       C297 0.029       .   A
C296       H302 0.024       .   A
C297       C298 0.029       .   A
C297       H301 0.024       .   A
C298       C299 0.029       .   A
C299       C300 0.029       .   A
C299       H304 0.024       .   A
C300       C303 0.034       .   A
C303       C305 0.034       .   A
C303       H309 0.024       .   A
C303       H310 0.024       .   A
C305       H306 0.024       .   A
C305       H307 0.024       .   A
C305       H308 0.024       .   A
C227       C228 0.029       .   A
C227       C232 0.029       .   A
C228       C229 0.029       .   A
C228       H235 0.024       .   A
C229       C230 0.030       .   A
C229       H234 0.024       .   A
C230       C231 0.029       .   A
C230       C233 0.030       .   A
C231       C232 0.029       .   A
C231       H237 0.024       .   A
C232       H236 0.024       .   A
C233       C238 0.029       .   A
C233       C242 0.030       .   A
C238       C239 0.029       .   A
C238       H245 0.024       .   A
C239       C240 0.030       .   A
C239       H244 0.024       .   A
C240       C241 0.029       .   A
C240       C243 0.030       .   A
C241       C242 0.029       .   A
C241       H247 0.023       .   A
C242       C246 0.034       .   A
C243       C254 0.030       .   A
C243       C258 0.030       .   A
C246       C248 0.034       .   A
C246       H252 0.024       .   A
C246       H253 0.024       .   A
C248       H249 0.024       .   A
C248       H250 0.024       .   A
C248       H251 0.024       .   A
C254       C255 0.029       .   A
C254       H260 0.024       .   A
C255       C256 0.029       .   A
C255       H259 0.024       .   A
C256       C257 0.029       .   A
C257       C258 0.029       .   A
C257       H262 0.024       .   A
C258       C261 0.034       .   A
C261       C263 0.034       .   A
C261       H267 0.024       .   A
C261       H268 0.024       .   A
C263       H264 0.024       .   A
C263       H265 0.024       .   A
C263       H266 0.024       .   A
C185       C186 0.029       .   A
C185       C190 0.029       .   A
C186       C187 0.029       .   A
C186       H193 0.024       .   A
C187       C188 0.030       .   A
C187       H192 0.024       .   A
C188       C189 0.029       .   A
C188       C191 0.030       .   A
C189       C190 0.029       .   A
C189       H195 0.024       .   A
C190       H194 0.024       .   A
C191       C196 0.029       .   A
C191       C200 0.030       .   A
C196       C197 0.029       .   A
C196       H203 0.024       .   A
C197       C198 0.030       .   A
C197       H202 0.024       .   A
C198       C199 0.029       .   A
C198       C201 0.030       .   A
C199       C200 0.029       .   A
C199       H205 0.023       .   A
C200       C204 0.034       .   A
C201       C212 0.030       .   A
C201       C216 0.030       .   A
C204       C206 0.034       .   A
C204       H210 0.024       .   A
C204       H211 0.024       .   A
C206       H207 0.024       .   A
C206       H208 0.024       .   A
C206       H209 0.024       .   A
C212       C213 0.029       .   A
C212       H218 0.024       .   A
C213       C214 0.029       .   A
C213       H217 0.024       .   A
C214       C215 0.029       .   A
C215       C216 0.029       .   A
C215       H220 0.024       .   A
C216       C219 0.034       .   A
C219       C221 0.034       .   A
C219       H225 0.024       .   A
C219       H226 0.024       .   A
C221       H222 0.024       .   A
C221       H223 0.024       .   A
C221       H224 0.024       .   A
