data_pcu_v1-6c_Zn_1_Ch_1-96_fer_tobacco
_audit_creation_date              2021-02-03
_audit_creation_method            'tobacco_3.0'
_symmetry_space_group_name_H-M    'P1'
_symmetry_Int_Tables_number       1
_symmetry_cell_setting            triclinic
loop_
_symmetry_equiv_pos_as_xyz
  x,y,z
_cell_length_a                    36.14745654210623
_cell_length_b                    36.14745654210623
_cell_length_c                    36.14745654210623
_cell_angle_alpha                 90.0
_cell_angle_beta                  90.0
_cell_angle_gamma                 90.0
loop_
_atom_site_label
_atom_site_type_symbol
_atom_site_fract_x
_atom_site_fract_y
_atom_site_fract_z
_atom_site_charge
Zn1       Zn    0.0310173967    0.0310173967   -0.0310173967          1.4972
Zn2       Zn   -0.0310173967    0.0310173967    0.0310173967          1.4936
Zn3       Zn   -0.0310173967   -0.0310173967   -0.0310173967          1.4911
Zn4       Zn    0.0310173967   -0.0310173967    0.0310173967          1.4948
O5         O    0.0000000000    0.0000000000    0.0000000000         -2.1784
O6         O    0.0227955181    0.0828993320   -0.0227955181         -1.0847
O7         O   -0.0828993320    0.0227955181    0.0227955181         -1.0829
O8         O   -0.0227955181   -0.0227955181   -0.0828993320         -1.0781
O9         O   -0.0227955181    0.0828993320    0.0227955181         -1.0849
O10        O    0.0227955181    0.0227955181   -0.0828993320         -1.0808
O11        O   -0.0828993320   -0.0227955181   -0.0227955181         -1.0867
O12        O    0.0227955181   -0.0828993320    0.0227955181         -1.0806
O13        O   -0.0227955181    0.0227955181    0.0828993320         -1.0882
O14        O   -0.0227955181   -0.0828993320   -0.0227955181         -1.0821
O15        O    0.0227955181   -0.0227955181    0.0828993320         -1.0867
O16        O    0.0828993320   -0.0227955181    0.0227955181         -1.0858
O17        O    0.0828993320    0.0227955181   -0.0227955181         -1.0837
C18        C    0.0000000000    0.0991162406    0.0000000000          0.4342
C19        C   -0.0991162406    0.0000000000    0.0000000000          0.4391
C20        C    0.0000000000   -0.0000000000   -0.0991162406          0.4287
C21        C   -0.0000000000   -0.0991162406   -0.0000000000          0.4325
C22        C   -0.0000000000    0.0000000000    0.0991162406          0.4438
C23        C    0.0991162406   -0.0000000000   -0.0000000000          0.4343
Zn24      Zn    0.9689826033    0.0310173967    0.4689826033          1.4972
Zn25      Zn    1.0310173967   -0.0310173967    0.4689826033          1.4936
Zn26      Zn    1.0310173967    0.0310173967    0.5310173967          1.4911
Zn27      Zn    0.9689826033   -0.0310173967    0.5310173967          1.4948
O28        O    1.0000000000    0.0000000000    0.5000000000         -2.1784
O29        O    0.9772044819    0.0227955181    0.4171006680         -1.0847
O30        O    1.0828993320   -0.0227955181    0.4772044819         -1.0829
O31        O    1.0227955181    0.0828993320    0.5227955181         -1.0781
O32        O    1.0227955181   -0.0227955181    0.4171006680         -1.0849
O33        O    0.9772044819    0.0828993320    0.4772044819         -1.0808
O34        O    1.0828993320    0.0227955181    0.5227955181         -1.0867
O35        O    0.9772044819   -0.0227955181    0.5828993320         -1.0806
O36        O    1.0227955181   -0.0828993320    0.4772044819         -1.0882
O37        O    1.0227955181    0.0227955181    0.5828993320         -1.0821
O38        O    0.9772044819   -0.0828993320    0.5227955181         -1.0867
O39        O    0.9171006680   -0.0227955181    0.5227955181         -1.0858
O40        O    0.9171006680    0.0227955181    0.4772044819         -1.0837
C41        C    1.0000000000    0.0000000000    0.4008837594          0.4342
C42        C    1.0991162406    0.0000000000    0.5000000000          0.4391
C43        C    1.0000000000    0.0991162406    0.5000000000          0.4287
C44        C    1.0000000000    0.0000000000    0.5991162406          0.4325
C45        C    1.0000000000   -0.0991162406    0.5000000000          0.4438
C46        C    0.9008837594    0.0000000000    0.5000000000          0.4343
Zn47      Zn    1.0310173967    0.4689826033   -0.0310173967          1.4972
Zn48      Zn    0.9689826033    0.4689826033    0.0310173967          1.4936
Zn49      Zn    1.0310173967    0.5310173967    0.0310173967          1.4911
Zn50      Zn    0.9689826033    0.5310173967   -0.0310173967          1.4948
O51        O    1.0000000000    0.5000000000    0.0000000000         -2.1784
O52        O    1.0227955181    0.4171006680   -0.0227955181         -1.0847
O53        O    0.9772044819    0.4772044819    0.0828993320         -1.0829
O54        O    1.0828993320    0.5227955181    0.0227955181         -1.0781
O55        O    0.9772044819    0.4171006680    0.0227955181         -1.0849
O56        O    1.0828993320    0.4772044819   -0.0227955181         -1.0808
O57        O    1.0227955181    0.5227955181    0.0828993320         -1.0867
O58        O    0.9772044819    0.5828993320   -0.0227955181         -1.0806
O59        O    0.9171006680    0.4772044819    0.0227955181         -1.0882
O60        O    1.0227955181    0.5828993320    0.0227955181         -1.0821
O61        O    0.9171006680    0.5227955181   -0.0227955181         -1.0867
O62        O    0.9772044819    0.5227955181   -0.0828993320         -1.0858
O63        O    1.0227955181    0.4772044819   -0.0828993320         -1.0837
C64        C    1.0000000000    0.4008837594    0.0000000000          0.4342
C65        C    1.0000000000    0.5000000000    0.0991162406          0.4391
C66        C    1.0991162406    0.5000000000    0.0000000000          0.4287
C67        C    1.0000000000    0.5991162406    0.0000000000          0.4325
C68        C    0.9008837594    0.5000000000    0.0000000000          0.4438
C69        C    1.0000000000    0.5000000000   -0.0991162406          0.4343
Zn70      Zn    0.9689826033    0.4689826033    0.5310173967          1.4972
Zn71      Zn    1.0310173967    0.4689826033    0.4689826033          1.4936
Zn72      Zn    0.9689826033    0.5310173967    0.4689826033          1.4911
Zn73      Zn    1.0310173967    0.5310173967    0.5310173967          1.4948
O74        O    1.0000000000    0.5000000000    0.5000000000         -2.1784
O75        O    0.9772044819    0.4171006680    0.5227955181         -1.0847
O76        O    1.0227955181    0.4772044819    0.4171006680         -1.0829
O77        O    0.9171006680    0.5227955181    0.4772044819         -1.0781
O78        O    1.0227955181    0.4171006680    0.4772044819         -1.0849
O79        O    0.9171006680    0.4772044819    0.5227955181         -1.0808
O80        O    0.9772044819    0.5227955181    0.4171006680         -1.0867
O81        O    1.0227955181    0.5828993320    0.5227955181         -1.0806
O82        O    1.0828993320    0.4772044819    0.4772044819         -1.0882
O83        O    0.9772044819    0.5828993320    0.4772044819         -1.0821
O84        O    1.0828993320    0.5227955181    0.5227955181         -1.0867
O85        O    1.0227955181    0.5227955181    0.5828993320         -1.0858
O86        O    0.9772044819    0.4772044819    0.5828993320         -1.0837
C87        C    1.0000000000    0.4008837594    0.5000000000          0.4342
C88        C    1.0000000000    0.5000000000    0.4008837594          0.4391
C89        C    0.9008837594    0.5000000000    0.5000000000          0.4287
C90        C    1.0000000000    0.5991162406    0.5000000000          0.4325
C91        C    1.0991162406    0.5000000000    0.5000000000          0.4438
C92        C    1.0000000000    0.5000000000    0.5991162406          0.4343
Zn93      Zn    0.4689826033    0.9689826033   -0.0310173967          1.4972
Zn94      Zn    0.4689826033    1.0310173967    0.0310173967          1.4936
Zn95      Zn    0.5310173967    0.9689826033    0.0310173967          1.4911
Zn96      Zn    0.5310173967    1.0310173967   -0.0310173967          1.4948
O97        O    0.5000000000    1.0000000000    0.0000000000         -2.1784
O98        O    0.4171006680    0.9772044819   -0.0227955181         -1.0847
O99        O    0.4772044819    1.0227955181    0.0828993320         -1.0829
O100       O    0.5227955181    0.9171006680    0.0227955181         -1.0781
O101       O    0.4171006680    1.0227955181    0.0227955181         -1.0849
O102       O    0.4772044819    0.9171006680   -0.0227955181         -1.0808
O103       O    0.5227955181    0.9772044819    0.0828993320         -1.0867
O104       O    0.5828993320    1.0227955181   -0.0227955181         -1.0806
O105       O    0.4772044819    1.0828993320    0.0227955181         -1.0882
O106       O    0.5828993320    0.9772044819    0.0227955181         -1.0821
O107       O    0.5227955181    1.0828993320   -0.0227955181         -1.0867
O108       O    0.5227955181    1.0227955181   -0.0828993320         -1.0858
O109       O    0.4772044819    0.9772044819   -0.0828993320         -1.0837
C110       C    0.4008837594    1.0000000000    0.0000000000          0.4342
C111       C    0.5000000000    1.0000000000    0.0991162406          0.4391
C112       C    0.5000000000    0.9008837594    0.0000000000          0.4287
C113       C    0.5991162406    1.0000000000    0.0000000000          0.4325
C114       C    0.5000000000    1.0991162406    0.0000000000          0.4438
C115       C    0.5000000000    1.0000000000   -0.0991162406          0.4343
Zn116     Zn    0.4689826033    1.0310173967    0.5310173967          1.4972
Zn117     Zn    0.4689826033    0.9689826033    0.4689826033          1.4936
Zn118     Zn    0.5310173967    1.0310173967    0.4689826033          1.4911
Zn119     Zn    0.5310173967    0.9689826033    0.5310173967          1.4948
O120       O    0.5000000000    1.0000000000    0.5000000000         -2.1784
O121       O    0.4171006680    1.0227955181    0.5227955181         -1.0847
O122       O    0.4772044819    0.9772044819    0.4171006680         -1.0829
O123       O    0.5227955181    1.0828993320    0.4772044819         -1.0781
O124       O    0.4171006680    0.9772044819    0.4772044819         -1.0849
O125       O    0.4772044819    1.0828993320    0.5227955181         -1.0808
O126       O    0.5227955181    1.0227955181    0.4171006680         -1.0867
O127       O    0.5828993320    0.9772044819    0.5227955181         -1.0806
O128       O    0.4772044819    0.9171006680    0.4772044819         -1.0882
O129       O    0.5828993320    1.0227955181    0.4772044819         -1.0821
O130       O    0.5227955181    0.9171006680    0.5227955181         -1.0867
O131       O    0.5227955181    0.9772044819    0.5828993320         -1.0858
O132       O    0.4772044819    1.0227955181    0.5828993320         -1.0837
C133       C    0.4008837594    1.0000000000    0.5000000000          0.4342
C134       C    0.5000000000    1.0000000000    0.4008837594          0.4391
C135       C    0.5000000000    1.0991162406    0.5000000000          0.4287
C136       C    0.5991162406    1.0000000000    0.5000000000          0.4325
C137       C    0.5000000000    0.9008837594    0.5000000000          0.4438
C138       C    0.5000000000    1.0000000000    0.5991162406          0.4343
Zn139     Zn    0.4689826033    0.5310173967   -0.0310173967          1.4972
Zn140     Zn    0.4689826033    0.4689826033    0.0310173967          1.4936
Zn141     Zn    0.5310173967    0.4689826033   -0.0310173967          1.4911
Zn142     Zn    0.5310173967    0.5310173967    0.0310173967          1.4948
O143       O    0.5000000000    0.5000000000    0.0000000000         -2.1784
O144       O    0.4171006680    0.5227955181   -0.0227955181         -1.0847
O145       O    0.4772044819    0.4171006680    0.0227955181         -1.0829
O146       O    0.5227955181    0.4772044819   -0.0828993320         -1.0781
O147       O    0.4171006680    0.4772044819    0.0227955181         -1.0849
O148       O    0.4772044819    0.5227955181   -0.0828993320         -1.0808
O149       O    0.5227955181    0.4171006680   -0.0227955181         -1.0867
O150       O    0.5828993320    0.5227955181    0.0227955181         -1.0806
O151       O    0.4772044819    0.4772044819    0.0828993320         -1.0882
O152       O    0.5828993320    0.4772044819   -0.0227955181         -1.0821
O153       O    0.5227955181    0.5227955181    0.0828993320         -1.0867
O154       O    0.5227955181    0.5828993320    0.0227955181         -1.0858
O155       O    0.4772044819    0.5828993320   -0.0227955181         -1.0837
C156       C    0.4008837594    0.5000000000    0.0000000000          0.4342
C157       C    0.5000000000    0.4008837594    0.0000000000          0.4391
C158       C    0.5000000000    0.5000000000   -0.0991162406          0.4287
C159       C    0.5991162406    0.5000000000    0.0000000000          0.4325
C160       C    0.5000000000    0.5000000000    0.0991162406          0.4438
C161       C    0.5000000000    0.5991162406    0.0000000000          0.4343
Zn162     Zn    0.4689826033    0.5310173967    0.4689826033          1.4972
Zn163     Zn    0.4689826033    0.4689826033    0.5310173967          1.4936
Zn164     Zn    0.5310173967    0.4689826033    0.4689826033          1.4911
Zn165     Zn    0.5310173967    0.5310173967    0.5310173967          1.4948
O166       O    0.5000000000    0.5000000000    0.5000000000         -2.1784
O167       O    0.4171006680    0.5227955181    0.4772044819         -1.0847
O168       O    0.4772044819    0.4171006680    0.5227955181         -1.0829
O169       O    0.5227955181    0.4772044819    0.4171006680         -1.0781
O170       O    0.4171006680    0.4772044819    0.5227955181         -1.0849
O171       O    0.4772044819    0.5227955181    0.4171006680         -1.0808
O172       O    0.5227955181    0.4171006680    0.4772044819         -1.0867
O173       O    0.5828993320    0.5227955181    0.5227955181         -1.0806
O174       O    0.4772044819    0.4772044819    0.5828993320         -1.0882
O175       O    0.5828993320    0.4772044819    0.4772044819         -1.0821
O176       O    0.5227955181    0.5227955181    0.5828993320         -1.0867
O177       O    0.5227955181    0.5828993320    0.5227955181         -1.0858
O178       O    0.4772044819    0.5828993320    0.4772044819         -1.0837
C179       C    0.4008837594    0.5000000000    0.5000000000          0.4342
C180       C    0.5000000000    0.4008837594    0.5000000000          0.4391
C181       C    0.5000000000    0.5000000000    0.4008837594          0.4287
C182       C    0.5991162406    0.5000000000    0.5000000000          0.4325
C183       C    0.5000000000    0.5000000000    0.5991162406          0.4438
C184       C    0.5000000000    0.5991162406    0.5000000000          0.4343
C645       C    0.5000000000    0.5000000000   -0.1417195147          0.6589
C646       C    0.5317046396    0.5043390198   -0.1611750119          0.6551
C647       C    0.5325585385    0.5034281179   -0.1985409661          0.6561
C648       C    0.5016676398    0.4975007438   -0.2189037071         -0.3385
C649       C    0.4706936903    0.4907508745   -0.1987635745         -0.3326
C650       C    0.4700301294    0.4929080643   -0.1617097464         -0.3347
N651       N    0.5016842366    0.4981092278   -0.2556690206         -0.3389
Cl652     Cl    0.5751535970    0.5092861784   -0.2196914783           0.651
H653       H    0.5578479943    0.5088128519   -0.1467541518           0.651
H654       H    0.4442679061    0.4876785888   -0.1472340507         -0.3301
C655       C    0.4144880774    0.5017336191   -0.2336351118          0.6579
N656       N    0.4785740196    0.4970034730   -0.2833742531         -0.3377
C657       C    0.4893271811    0.4985224598   -0.3220340343         -0.3389
C658       C    0.5000000000    0.5000000000   -0.3582804853           -0.34
H659       H    0.5297944199    0.5004824273   -0.3618007099          0.6596
H660       H    0.4591419909    0.4981719860   -0.3175043376         -0.3385
H661       H    0.3885940159    0.5037199214   -0.2182692035          0.6561
H662       H    0.4270296759    0.5290182121   -0.2373644828          0.6337
H663       H    0.4092206293    0.4890652549   -0.2605921292         -0.3307
O664       O    0.4390533669    0.4772147275   -0.2142825611         -0.3205
C625       C    0.5000000000    0.5000000000    0.3582804853          0.6589
C626       C    0.4682953604    0.4956609802    0.3388249881          0.6551
C627       C    0.4674414615    0.4965718821    0.3014590339          0.6561
C628       C    0.4983323602    0.5024992562    0.2810962929         -0.3385
C629       C    0.5293063097    0.5092491255    0.3012364255         -0.3326
C630       C    0.5299698706    0.5070919357    0.3382902536         -0.3347
N631       N    0.4983157634    0.5018907722    0.2443309794         -0.3389
Cl632     Cl    0.4248464030    0.4907138216    0.2803085217           0.651
H633       H    0.4421520057    0.4911871481    0.3532458482           0.651
H634       H    0.5557320939    0.5123214112    0.3527659493         -0.3301
C635       C    0.5855119226    0.4982663809    0.2663648882          0.6579
N636       N    0.5214259804    0.5029965270    0.2166257469         -0.3377
C637       C    0.5106728189    0.5014775402    0.1779659657         -0.3389
C638       C    0.5000000000    0.5000000000    0.1417195147           -0.34
H639       H    0.4702055801    0.4995175727    0.1381992901          0.6596
H640       H    0.5408580091    0.5018280140    0.1824956624         -0.3385
H641       H    0.6114059841    0.4962800786    0.2817307965          0.6561
H642       H    0.5729703241    0.4709817879    0.2626355172          0.6337
H643       H    0.5907793707    0.5109347451    0.2394078708         -0.3307
O644       O    0.5609466331    0.5227852725    0.2857174389         -0.3205
C605       C    0.5000000000    0.8582804853    0.5000000000          0.6589
C606       C    0.4960025553    0.8388249881    0.4682504850          0.6551
C607       C    0.4969225972    0.8014590339    0.4674064421          0.6561
C608       C    0.5025170647    0.7810962929    0.4983593632         -0.3385
C609       C    0.5089330857    0.8012364255    0.5294041849         -0.3326
C610       C    0.5067688772    0.8382902536    0.5300444837         -0.3347
N611       N    0.5019087947    0.7443309794    0.4983362165         -0.3389
Cl612     Cl    0.4915234431    0.7803085217    0.4247507858           0.651
H613       H    0.4918104347    0.8532458482    0.4420604813           0.651
H614       H    0.5117207005    0.8527659493    0.5558615131         -0.3301
C615       C    0.4973458831    0.7663648882    0.5854883034          0.6579
N616       N    0.5027656870    0.7166257469    0.5214569985         -0.3377
C617       C    0.5013625539    0.6779659657    0.5106881072         -0.3389
C618       C    0.5000000000    0.6417195147    0.5000000000           -0.34
H619       H    0.4998383594    0.6381992901    0.4702021131          0.6596
H620       H    0.5013880418    0.6824956624    0.5408753212         -0.3385
H621       H    0.4950809274    0.7817307965    0.6113594802          0.6561
H622       H    0.4701978907    0.7626355172    0.5726536931          0.6337
H623       H    0.5099568052    0.7394078708    0.5908918304         -0.3307
O624       O    0.5221278170    0.7857174389    0.5611884012         -0.3205
C585       C    0.5000000000    1.1417195147    0.5000000000          0.6589
C586       C    0.4682953604    1.1611750119    0.4956609802          0.6551
C587       C    0.4674414615    1.1985409661    0.4965718821          0.6561
C588       C    0.4983323602    1.2189037071    0.5024992562         -0.3385
C589       C    0.5293063097    1.1987635745    0.5092491255         -0.3326
C590       C    0.5299698706    1.1617097464    0.5070919357         -0.3347
N591       N    0.4983157634    1.2556690206    0.5018907722         -0.3389
Cl592     Cl    0.4248464030    1.2196914783    0.4907138216           0.651
H593       H    0.4421520057    1.1467541518    0.4911871481           0.651
H594       H    0.5557320939    1.1472340507    0.5123214112         -0.3301
C595       C    0.5855119226    1.2336351118    0.4982663809          0.6579
N596       N    0.5214259804    1.2833742531    0.5029965270         -0.3377
C597       C    0.5106728189    1.3220340343    0.5014775402         -0.3389
C598       C    0.5000000000    1.3582804853    0.5000000000           -0.34
H599       H    0.4702055801    1.3618007099    0.4995175727          0.6596
H600       H    0.5408580091    1.3175043376    0.5018280140         -0.3385
H601       H    0.6114059841    1.2182692035    0.4962800786          0.6561
H602       H    0.5729703241    1.2373644828    0.4709817879          0.6337
H603       H    0.5907793707    1.2605921292    0.5109347451         -0.3307
O604       O    0.5609466331    1.2142825611    0.5227852725         -0.3205
C565       C    0.5000000000    0.6417195147    0.0000000000          0.6589
C566       C    0.4709111737    0.6611750119   -0.0133360956          0.6551
C567       C    0.4698300401    0.6985409661   -0.0127115672          0.6561
C568       C    0.4976799492    0.7189037071    0.0019091014         -0.3385
C569       C    0.5253711179    0.6987635745    0.0173410636         -0.3326
C570       C    0.5266310527    0.6617097464    0.0154685399         -0.3347
N571       N    0.4978403078    0.7556690206    0.0013218933         -0.3389
Cl572     Cl    0.4307576015    0.7196914783   -0.0306559376           0.651
H573       H    0.4471842916    0.6467541518   -0.0251904299           0.651
H574       H    0.5497742730    0.6472340507    0.0279357338         -0.3301
C575       C    0.5823485300    0.7336351118    0.0231087419          0.6579
N576       N    0.5196396142    0.7833742531    0.0090739937         -0.3377
C577       C    0.5097873601    0.8220340343    0.0045055266         -0.3389
C578       C    0.5000000000    0.8582804853    0.0000000000           -0.34
H579       H    0.4716224702    0.8618007099   -0.0090915341          0.6596
H580       H    0.5385771293    0.8175043376    0.0135839479         -0.3385
H581       H    0.6077079466    0.7182692035    0.0287076532          0.6561
H582       H    0.5782473647    0.7373644828   -0.0066388825          0.6337
H583       H    0.5837208649    0.7605921292    0.0367597549         -0.3307
O584       O    0.5517344888    0.7142825611    0.0394614166         -0.3205
C545       C    0.5000000000    1.1417195147    0.0000000000          0.6589
C546       C    0.4776501125    1.1611750119    0.0229018295          0.6551
C547       C    0.4778742521    1.1985409661    0.0241300995          0.6561
C548       C    0.5010166874    1.2189037071    0.0028273045         -0.3385
C549       C    0.5248696309    1.1987635745   -0.0180529103         -0.3326
C550       C    0.5235305215    1.1617097464   -0.0198696566         -0.3347
N551       N    0.5005177314    1.2556690206    0.0024786341         -0.3389
Cl552     Cl    0.4478242747    1.2196914783    0.0548815994           0.651
H553       H    0.4585004888    1.1467541518    0.0412534529           0.651
H554       H    0.5430607600    1.1472340507   -0.0374653762         -0.3301
C555       C    0.5494808942    1.2336351118   -0.0697634250          0.6579
N556       N    0.5151556611    1.2833742531   -0.0154388389         -0.3377
C557       C    0.5075372743    1.3220340343   -0.0076994600         -0.3389
C558       C    0.5000000000    1.3582804853    0.0000000000           -0.34
H559       H    0.4818863940    1.3618007099    0.0236608848          0.6596
H560       H    0.5257773042    1.3175043376   -0.0317529390         -0.3385
H561       H    0.5632897332    1.2182692035   -0.0917580557          0.6561
H562       H    0.5200888429    1.2373644828   -0.0759155006          0.6337
H563       H    0.5627971688    1.2605921292   -0.0664603520         -0.3307
O564       O    0.5545736410    1.2142825611   -0.0354313201         -0.3205
C525       C    0.5000000000    1.0000000000   -0.1417195147          0.6589
C526       C    0.5317046396    1.0043390198   -0.1611750119          0.6551
C527       C    0.5325585385    1.0034281179   -0.1985409661          0.6561
C528       C    0.5016676398    0.9975007438   -0.2189037071         -0.3385
C529       C    0.4706936903    0.9907508745   -0.1987635745         -0.3326
C530       C    0.4700301294    0.9929080643   -0.1617097464         -0.3347
N531       N    0.5016842366    0.9981092278   -0.2556690206         -0.3389
Cl532     Cl    0.5751535970    1.0092861784   -0.2196914783           0.651
H533       H    0.5578479943    1.0088128519   -0.1467541518           0.651
H534       H    0.4442679061    0.9876785888   -0.1472340507         -0.3301
C535       C    0.4144880774    1.0017336191   -0.2336351118          0.6579
N536       N    0.4785740196    0.9970034730   -0.2833742531         -0.3377
C537       C    0.4893271811    0.9985224598   -0.3220340343         -0.3389
C538       C    0.5000000000    1.0000000000   -0.3582804853           -0.34
H539       H    0.5297944199    1.0004824273   -0.3618007099          0.6596
H540       H    0.4591419909    0.9981719860   -0.3175043376         -0.3385
H541       H    0.3885940159    1.0037199214   -0.2182692035          0.6561
H542       H    0.4270296759    1.0290182121   -0.2373644828          0.6337
H543       H    0.4092206293    0.9890652549   -0.2605921292         -0.3307
O544       O    0.4390533669    0.9772147275   -0.2142825611         -0.3205
C505       C    0.5000000000    1.0000000000    0.1417195147          0.6589
C506       C    0.5317046396    0.9956609802    0.1611750119          0.6551
C507       C    0.5325585385    0.9965718821    0.1985409661          0.6561
C508       C    0.5016676398    1.0024992562    0.2189037071         -0.3385
C509       C    0.4706936903    1.0092491255    0.1987635745         -0.3326
C510       C    0.4700301294    1.0070919357    0.1617097464         -0.3347
N511       N    0.5016842366    1.0018907722    0.2556690206         -0.3389
Cl512     Cl    0.5751535970    0.9907138216    0.2196914783           0.651
H513       H    0.5578479943    0.9911871481    0.1467541518           0.651
H514       H    0.4442679061    1.0123214112    0.1472340507         -0.3301
C515       C    0.4144880774    0.9982663809    0.2336351118          0.6579
N516       N    0.4785740196    1.0029965270    0.2833742531         -0.3377
C517       C    0.4893271811    1.0014775402    0.3220340343         -0.3389
C518       C    0.5000000000    1.0000000000    0.3582804853           -0.34
H519       H    0.5297944199    0.9995175727    0.3618007099          0.6596
H520       H    0.4591419909    1.0018280140    0.3175043376         -0.3385
H521       H    0.3885940159    0.9962800786    0.2182692035          0.6561
H522       H    0.4270296759    0.9709817879    0.2373644828          0.6337
H523       H    0.4092206293    1.0109347451    0.2605921292         -0.3307
O524       O    0.4390533669    1.0227852725    0.2142825611         -0.3205
C485       C    0.8582804853    0.5000000000    0.5000000000          0.6589
C486       C    0.8388249881    0.4696395650    0.5101121339          0.6551
C487       C    0.8014590339    0.4692758634    0.5113065403          0.6561
C488       C    0.7810962929    0.4996078753    0.5029788491         -0.3385
C489       C    0.8012364255    0.5303777166    0.4953523722         -0.3326
C490       C    0.8382902536    0.5300201345    0.4931239386         -0.3347
N491       N    0.7443309794    0.4993242001    0.5024402801         -0.3389
Cl492     Cl    0.7803085217    0.4284741030    0.5248664899           0.651
H493       H    0.8532458482    0.4442088763    0.5176467369           0.651
H494       H    0.8527659493    0.5554426819    0.4864356167         -0.3301
C495       C    0.7663648882    0.5759510798    0.4606715392          0.6579
N496       N    0.7166257469    0.5205459352    0.4932238391         -0.3377
C497       C    0.6779659657    0.5102277739    0.4966110726         -0.3389
C498       C    0.6417195147    0.5000000000    0.5000000000 -0.34480000000000005
H499       H    0.6381992901    0.4730568863    0.5127282684          0.6596
H500       H    0.6824956624    0.5374631788    0.4835918075         -0.3385
H501       H    0.7817307965    0.5983044828    0.4474513581          0.6561
H502       H    0.7626355172    0.5526469944    0.4417332100          0.6337
H503       H    0.7394078708    0.5862727530    0.4697101521         -0.3307
O504       O    0.7857174389    0.5647430938    0.4935198351         -0.3205
C465       C    1.1417195147    0.5000000000    0.5000000000          0.6589
C466       C    1.1611750119    0.5263059681    0.4817789323          0.6551
C467       C    1.1985409661    0.5274797142    0.4822046149          0.6561
C468       C    1.2189037071    0.5026183541    0.5014736097         -0.3385
C469       C    1.1987635745    0.4780552678    0.5215135966         -0.3326
C470       C    1.1617097464    0.4764870702    0.5198904708         -0.3347
N471       N    1.2556690206    0.5023577040    0.5009235282         -0.3389
Cl472     Cl    1.2196914783    0.5628087301    0.4576991763           0.651
H473       H    1.1467541518    0.5475920637    0.4659551432           0.651
H474       H    1.1472340507    0.4558828842    0.5362155155         -0.3301
C475       C    1.2336351118    0.4229665835    0.5371637873          0.6579
N476       N    1.2833742531    0.4822515102    0.5123710516         -0.3377
C477       C    1.3220340343    0.4911521937    0.5061488627         -0.3389
C478       C    1.3582804853    0.5000000000    0.5000000000           -0.34
H479       H    1.3618007099    0.5263484829    0.4860824701          0.6596
H480       H    1.3175043376    0.4643955387    0.5201256275         -0.3385
H481       H    1.2182692035    0.3989783968    0.5471144011          0.6561
H482       H    1.2373644828    0.4217983714    0.5071575215          0.6337
H483       H    1.2605921292    0.4240044698    0.5508442936         -0.3307
O484       O    1.2142825611    0.4559700118    0.5479063761         -0.3205
C445       C    0.6417195147    0.5000000000    0.0000000000          0.6589
C446       C    0.6611750119    0.4682004997    0.0035781347          0.6551
C447       C    0.6985409661    0.4673686711    0.0026470349          0.6561
C448       C    0.7189037071    0.4983927209   -0.0025384951         -0.3385
C449       C    0.6987635745    0.5295195044   -0.0085442945         -0.3326
C450       C    0.6617097464    0.5301311888   -0.0063718251         -0.3347
N451       N    0.7556690206    0.4983615496   -0.0019305835         -0.3389
Cl452     Cl    0.7196914783    0.4246454822    0.0074828411           0.651
H453       H    0.6467541518    0.4419574577    0.0074242907           0.651
H454       H    0.6472340507    0.5560113140   -0.0109825395         -0.3301
C455       C    0.7336351118    0.5854458366    0.0037819772          0.6579
N456       N    0.7833742531    0.5214916259   -0.0024823027         -0.3377
C457       C    0.8220340343    0.5107051566   -0.0012213966         -0.3389
C458       C    0.8582804853    0.5000000000    0.0000000000           -0.34
H459       H    0.8618007099    0.4702025746   -0.0002315821          0.6596
H460       H    0.8175043376    0.5408900787   -0.0008485361         -0.3385
H461       H    0.7182692035    0.6112848729    0.0063881280          0.6561
H462       H    0.7373644828    0.5722541028    0.0307582421          0.6337
H463       H    0.7605921292    0.5910153051   -0.0087565428         -0.3307
O464       O    0.7142825611    0.5614750691   -0.0213184570         -0.3205
C425       C    1.1417195147    0.5000000000    0.0000000000          0.6589
C426       C    1.1611750119    0.4932389464   -0.0312777783          0.6551
C427       C    1.1985409661    0.4940815805   -0.0321991107          0.6561
C428       C    1.2189037071    0.5023638039   -0.0018546522         -0.3385
C429       C    1.1987635745    0.5114724717    0.0285094459         -0.3326
C430       C    1.1617097464    0.5093726128    0.0293367146         -0.3347
N431       N    1.2556690206    0.5017558424   -0.0018244698         -0.3389
Cl432     Cl    1.2196914783    0.4849696115   -0.0742184861           0.651
H433       H    1.1467541518    0.4867705733   -0.0570003428           0.651
H434       H    1.1472340507    0.5165651275    0.0546212415         -0.3301
C435       C    1.2336351118    0.5048386331    0.0853925171          0.6579
N436       N    1.2833742531    0.5046331466    0.0211325758         -0.3377
C437       C    1.3220340343    0.5022928262    0.0105278268         -0.3389
C438       C    1.3582804853    0.5000000000    0.0000000000           -0.34
H439       H    1.3618007099    0.4972308499   -0.0296693781          0.6596
H440       H    1.3175043376    0.5049604228    0.0405969550         -0.3385
H441       H    1.2182692035    0.5048468054    0.1113626490          0.6561
H442       H    1.2373644828    0.4766714523    0.0749833561          0.6337
H443       H    1.2605921292    0.5178741124    0.0896715055         -0.3307
O444       O    1.2142825611    0.5273985511    0.0590167784         -0.3205
C405       C    1.0000000000    0.5000000000   -0.3582804853          0.6589
C406       C    1.0317046396    0.4956609802   -0.3388249881          0.6551
C407       C    1.0325585385    0.4965718821   -0.3014590339          0.6561
C408       C    1.0016676398    0.5024992562   -0.2810962929         -0.3385
C409       C    0.9706936903    0.5092491255   -0.3012364255         -0.3326
C410       C    0.9700301294    0.5070919357   -0.3382902536         -0.3347
N411       N    1.0016842366    0.5018907722   -0.2443309794         -0.3389
Cl412     Cl    1.0751535970    0.4907138216   -0.2803085217           0.651
H413       H    1.0578479943    0.4911871481   -0.3532458482           0.651
H414       H    0.9442679061    0.5123214112   -0.3527659493         -0.3301
C415       C    0.9144880774    0.4982663809   -0.2663648882          0.6579
N416       N    0.9785740196    0.5029965270   -0.2166257469         -0.3377
C417       C    0.9893271811    0.5014775402   -0.1779659657         -0.3389
C418       C    1.0000000000    0.5000000000   -0.1417195147           -0.34
H419       H    1.0297944199    0.4995175727   -0.1381992901          0.6596
H420       H    0.9591419909    0.5018280140   -0.1824956624         -0.3385
H421       H    0.8885940159    0.4962800786   -0.2817307965          0.6561
H422       H    0.9270296759    0.4709817879   -0.2626355172          0.6337
H423       H    0.9092206293    0.5109347451   -0.2394078708         -0.3307
O424       O    0.9390533669    0.5227852725   -0.2857174389         -0.3205
C385       C    1.0000000000    0.5000000000    0.1417195147          0.6589
C386       C    0.9682953604    0.5043390198    0.1611750119          0.6551
C387       C    0.9674414615    0.5034281179    0.1985409661          0.6561
C388       C    0.9983323602    0.4975007438    0.2189037071         -0.3385
C389       C    1.0293063097    0.4907508745    0.1987635745         -0.3326
C390       C    1.0299698706    0.4929080643    0.1617097464         -0.3347
N391       N    0.9983157634    0.4981092278    0.2556690206         -0.3389
Cl392     Cl    0.9248464030    0.5092861784    0.2196914783           0.651
H393       H    0.9421520057    0.5088128519    0.1467541518           0.651
H394       H    1.0557320939    0.4876785888    0.1472340507         -0.3301
C395       C    1.0855119226    0.5017336191    0.2336351118          0.6579
N396       N    1.0214259804    0.4970034730    0.2833742531         -0.3377
C397       C    1.0106728189    0.4985224598    0.3220340343         -0.3389
C398       C    1.0000000000    0.5000000000    0.3582804853           -0.34
H399       H    0.9702055801    0.5004824273    0.3618007099          0.6596
H400       H    1.0408580091    0.4981719860    0.3175043376         -0.3385
H401       H    1.1114059841    0.5037199214    0.2182692035          0.6561
H402       H    1.0729703241    0.5290182121    0.2373644828          0.6337
H403       H    1.0907793707    0.4890652549    0.2605921292         -0.3307
O404       O    1.0609466331    0.4772147275    0.2142825611         -0.3205
C365       C    1.0000000000   -0.1417195147    0.5000000000          0.6589
C366       C    1.0317046396   -0.1611750119    0.4956609802          0.6551
C367       C    1.0325585385   -0.1985409661    0.4965718821          0.6561
C368       C    1.0016676398   -0.2189037071    0.5024992562         -0.3385
C369       C    0.9706936903   -0.1987635745    0.5092491255         -0.3326
C370       C    0.9700301294   -0.1617097464    0.5070919357         -0.3347
N371       N    1.0016842366   -0.2556690206    0.5018907722         -0.3389
Cl372     Cl    1.0751535970   -0.2196914783    0.4907138216           0.651
H373       H    1.0578479943   -0.1467541518    0.4911871481           0.651
H374       H    0.9442679061   -0.1472340507    0.5123214112         -0.3301
C375       C    0.9144880774   -0.2336351118    0.4982663809          0.6579
N376       N    0.9785740196   -0.2833742531    0.5029965270         -0.3377
C377       C    0.9893271811   -0.3220340343    0.5014775402         -0.3389
C378       C    1.0000000000   -0.3582804853    0.5000000000           -0.34
H379       H    1.0297944199   -0.3618007099    0.4995175727          0.6596
H380       H    0.9591419909   -0.3175043376    0.5018280140         -0.3385
H381       H    0.8885940159   -0.2182692035    0.4962800786          0.6561
H382       H    0.9270296759   -0.2373644828    0.4709817879          0.6337
H383       H    0.9092206293   -0.2605921292    0.5109347451         -0.3307
O384       O    0.9390533669   -0.2142825611    0.5227852725         -0.3205
C345       C    1.0000000000    0.1417195147    0.5000000000          0.6589
C346       C    0.9682953604    0.1611750119    0.4956609802          0.6551
C347       C    0.9674414615    0.1985409661    0.4965718821          0.6561
C348       C    0.9983323602    0.2189037071    0.5024992562         -0.3385
C349       C    1.0293063097    0.1987635745    0.5092491255         -0.3326
C350       C    1.0299698706    0.1617097464    0.5070919357         -0.3347
N351       N    0.9983157634    0.2556690206    0.5018907722         -0.3389
Cl352     Cl    0.9248464030    0.2196914783    0.4907138216           0.651
H353       H    0.9421520057    0.1467541518    0.4911871481           0.651
H354       H    1.0557320939    0.1472340507    0.5123214112         -0.3301
C355       C    1.0855119226    0.2336351118    0.4982663809          0.6579
N356       N    1.0214259804    0.2833742531    0.5029965270         -0.3377
C357       C    1.0106728189    0.3220340343    0.5014775402         -0.3389
C358       C    1.0000000000    0.3582804853    0.5000000000           -0.34
H359       H    0.9702055801    0.3618007099    0.4995175727          0.6596
H360       H    1.0408580091    0.3175043376    0.5018280140         -0.3385
H361       H    1.1114059841    0.2182692035    0.4962800786          0.6561
H362       H    1.0729703241    0.2373644828    0.4709817879          0.6337
H363       H    1.0907793707    0.2605921292    0.5109347451         -0.3307
O364       O    1.0609466331    0.2142825611    0.5227852725         -0.3205
C325       C    0.8582804853   -0.0000000000    0.5000000000          0.6589
C326       C    0.8388249881   -0.0011862821    0.5319781800          0.6551
C327       C    0.8014590339   -0.0001954934    0.5327379322          0.6561
C328       C    0.7810962929    0.0026517507    0.5014126295         -0.3385
C329       C    0.8012364255    0.0063092651    0.4699234429         -0.3326
C330       C    0.8382902536    0.0040970827    0.4694761960         -0.3347
N331       N    0.7443309794    0.0020478814    0.5014892462         -0.3389
Cl332     Cl    0.7803085217   -0.0018177235    0.5757033166           0.651
H333       H    0.8532458482   -0.0030560148    0.5584355849           0.651
H334       H    0.8527659493    0.0067564087    0.4433234227         -0.3301
C335       C    0.7663648882   -0.0101712978    0.4150774526          0.6579
N336       N    0.7166257469    0.0008655943    0.4783828181         -0.3377
C337       C    0.6779659657    0.0004161431    0.4892334308         -0.3389
C338       C    0.6417195147   -0.0000000000    0.5000000000           -0.34
H339       H    0.6381992901    0.0024627765    0.5296963790          0.6596
H340       H    0.6824956624   -0.0022165388    0.4591612255         -0.3385
H341       H    0.7817307965   -0.0147054872    0.3895062004          0.6561
H342       H    0.7626355172   -0.0360837178    0.4302526693          0.6337
H343       H    0.7394078708    0.0019148450    0.4085844862         -0.3307
O344       O    0.7857174389    0.0166540542    0.4371008489         -0.3205
C305       C    1.1417195147   -0.0000000000    0.5000000000          0.6589
C306       C    1.1611750119   -0.0304141754    0.4900506684          0.6551
C307       C    1.1985409661   -0.0307842708    0.4888582276          0.6561
C308       C    1.2189037071   -0.0004080783    0.4970232945         -0.3385
C309       C    1.1987635745    0.0304021805    0.5044848114         -0.3326
C310       C    1.1617097464    0.0300565424    0.5067151287         -0.3347
N311       N    1.2556690206   -0.0006888640    0.4975633755         -0.3389
Cl312     Cl    1.2196914783   -0.0716580936    0.4755170697           0.651
H313       H    1.1467541518   -0.0558848660    0.4826524194           0.651
H314       H    1.1472340507    0.0555145579    0.5132671524         -0.3301
C315       C    1.2336351118    0.0761606934    0.5389209857          0.6579
N316       N    1.2833742531    0.0205819438    0.5066659880         -0.3377
C317       C    1.3220340343    0.0102457834    0.5033340831         -0.3389
C318       C    1.3582804853   -0.0000000000    0.5000000000           -0.34
H319       H    1.3618007099   -0.0270109192    0.4874162630          0.6596
H320       H    1.3175043376    0.0375505486    0.5162072467         -0.3385
H321       H    1.2182692035    0.0985846033    0.5520212178          0.6561
H322       H    1.2373644828    0.0529584053    0.5579838956          0.6337
H323       H    1.2605921292    0.0864337938    0.5298272037         -0.3307
O324       O    1.2142825611    0.0647768823    0.5061332084         -0.3205
C285       C    0.0000000000   -0.3582804853    0.0000000000          0.6589
C286       C   -0.0296254933   -0.3388249881   -0.0120971654          0.6551
C287       C   -0.0306793200   -0.3014590339   -0.0114275871          0.6561
C288       C   -0.0022374537   -0.2810962929    0.0020052692         -0.3385
C289       C    0.0260800364   -0.3012364255    0.0162553933         -0.3326
C290       C    0.0272598607   -0.3382902536    0.0143313882         -0.3347
N291       N   -0.0021020082   -0.2443309794    0.0014118194         -0.3389
Cl292     Cl   -0.0704739308   -0.2803085217   -0.0277077847           0.651
H293       H   -0.0538313096   -0.3532458482   -0.0229400722           0.651
H294       H    0.0509083871   -0.3527659493    0.0258112299         -0.3301
C295       C    0.0832500317   -0.2663648882    0.0196144482          0.6579
N296       N    0.0200049029   -0.2166257469    0.0082374552         -0.3377
C297       C    0.0099687059   -0.1779659657    0.0040886540         -0.3389
C298       C   -0.0000000000   -0.1417195147    0.0000000000           -0.34
H299       H   -0.0287357808   -0.1381992901   -0.0078863867          0.6596
H300       H    0.0391158059   -0.1824956624    0.0119445500         -0.3385
H301       H    0.1088230556   -0.2817307965    0.0241386347          0.6561
H302       H    0.0778976668   -0.2626355172   -0.0099336972          0.6337
H303       H    0.0851969884   -0.2394078708    0.0331954210         -0.3307
O304       O    0.0533530483   -0.2857174389    0.0372439655         -0.3205
C265       C    0.0000000000    0.3582804853    0.0000000000          0.6589
C266       C   -0.0006990525    0.3388249881   -0.0319925396          0.6551
C267       C    0.0003031939    0.3014590339   -0.0327371119          0.6561
C268       C    0.0026729602    0.2810962929   -0.0013720741         -0.3385
C269       C    0.0058504067    0.3012364255    0.0301691706         -0.3326
C270       C    0.0036316684    0.3382902536    0.0305826696         -0.3347
N271       N    0.0020703281    0.2443309794   -0.0014578800         -0.3389
Cl272     Cl   -0.0006643987    0.2803085217   -0.0757222215           0.651
H273       H   -0.0021655687    0.3532458482   -0.0584753548           0.651
H274       H    0.0058923266    0.3527659493    0.0567729157         -0.3301
C275       C   -0.0114636591    0.2663648882    0.0847577658          0.6579
N276       N    0.0005362207    0.2166257469    0.0216278588         -0.3377
C277       C    0.0002520983    0.1779659657    0.0107716589         -0.3389
C278       C    0.0000000000    0.1417195147    0.0000000000           -0.34
H279       H    0.0029148264    0.1381992901   -0.0296554207          0.6596
H280       H   -0.0028383384    0.1824956624    0.0408002743         -0.3385
H281       H   -0.0163868241    0.2817307965    0.1102569866          0.6561
H282       H   -0.0371419238    0.2626355172    0.0691896114          0.6337
H283       H    0.0005221806    0.2394078708    0.0914340753         -0.3307
O284       O    0.0156940415    0.2857174389    0.0631455287         -0.3205
C245       C   -0.1417195147   -0.0000000000    0.0000000000          0.6589
C246       C   -0.1611750119    0.0318266266   -0.0033282287          0.6551
C247       C   -0.1985409661    0.0324393014   -0.0044161236          0.6561
C248       C   -0.2189037071    0.0010251758   -0.0028242377         -0.3385
C249       C   -0.1987635745   -0.0306652912   -0.0020114740         -0.3326
C250       C   -0.1617097464   -0.0307965957    0.0002416439         -0.3347
N251       N   -0.2556690206    0.0011860571   -0.0022371726         -0.3389
Cl252     Cl   -0.2196914783    0.0752050541   -0.0088598025           0.651
H253       H   -0.1467541518    0.0582837129   -0.0052024623           0.651
H254       H   -0.1472340507   -0.0570632642    0.0012912569         -0.3301
C255       C   -0.2336351118   -0.0826443208    0.0220274962          0.6579
N256       N   -0.2833742531   -0.0215236972    0.0021868398         -0.3377
C257       C   -0.3220340343   -0.0107179005    0.0011039912         -0.3389
C258       C   -0.3582804853   -0.0000000000    0.0000000000           -0.34
H259       H   -0.3618007099    0.0290537521   -0.0066196437          0.6596
H260       H   -0.3175043376   -0.0401198111    0.0079447658         -0.3385
H261       H   -0.2182692035   -0.1073223778    0.0301170769          0.6561
H262       H   -0.2373644828   -0.0639716878    0.0455450107          0.6337
H263       H   -0.2605921292   -0.0907743911    0.0109760068         -0.3307
O264       O   -0.2142825611   -0.0646174840   -0.0076316112         -0.3205
C225       C    0.1417195147   -0.0000000000    0.0000000000          0.6589
C226       C    0.1611750119   -0.0292748172   -0.0129227066          0.6551
C227       C    0.1985409661   -0.0295245728   -0.0141460249          0.6561
C228       C    0.2189037071   -0.0001102262   -0.0030025246         -0.3385
C229       C    0.1987635745    0.0298059582    0.0074840474         -0.3326
C230       C    0.1617097464    0.0292403772    0.0096689728         -0.3347
N231       N    0.2556690206   -0.0004432963   -0.0024930224         -0.3389
Cl232     Cl    0.2196914783   -0.0688701675   -0.0314832699           0.651
H233       H    0.1467541518   -0.0538841556   -0.0228156653           0.651
H234       H    0.1472340507    0.0539212031    0.0187186358         -0.3301
C235       C    0.2336351118    0.0719155892    0.0462973259          0.6579
N236       N    0.2833742531    0.0198175680    0.0086784679         -0.3377
C237       C    0.3220340343    0.0098637110    0.0043358267         -0.3389
C238       C    0.3582804853   -0.0000000000    0.0000000000           -0.34
H239       H    0.3618007099   -0.0256265960   -0.0152058465          0.6596
H240       H    0.3175043376    0.0357539344    0.0198588700         -0.3385
H241       H    0.2182692035    0.0929265542    0.0615612429          0.6561
H242       H    0.2373644828    0.0469336521    0.0629599646          0.6337
H243       H    0.2605921292    0.0830415918    0.0382695287         -0.3307
O244       O    0.2142825611    0.0638466606    0.0125405208         -0.3205
C205       C    0.0000000000    0.0000000000   -0.1417195147          0.6589
C206       C   -0.0043728040    0.0316999976   -0.1611750119          0.6551
C207       C   -0.0034628125    0.0325548668   -0.1985409661          0.6561
C208       C    0.0024974776    0.0016703022   -0.2189037071         -0.3385
C209       C    0.0092803511   -0.0292964366   -0.1987635745         -0.3326
C210       C    0.0071238696   -0.0299622959   -0.1617097464         -0.3347
N211       N    0.0018889763    0.0016862506   -0.2556690206         -0.3389
Cl212     Cl   -0.0093662620    0.0751436584   -0.2196914783           0.651
H213       H   -0.0088744937    0.0578385699   -0.1467541518           0.651
H214       H    0.0123807962   -0.0557189318   -0.1472340507         -0.3301
C215       C   -0.0016424907   -0.0855137216   -0.2336351118          0.6579
N216       N    0.0030193583   -0.0214227749   -0.2833742531         -0.3377
C217       C    0.0014889131   -0.0106712383   -0.3220340343         -0.3389
C218       C    0.0000000000    0.0000000000   -0.3582804853           -0.34
H219       H   -0.0005141780    0.0297938888   -0.3618007099          0.6596
H220       H    0.0018715541   -0.0408560379   -0.3175043376         -0.3385
H221       H   -0.0036011975   -0.1114098850   -0.2182692035          0.6561
H222       H   -0.0289404335   -0.0730012065   -0.2373644828          0.6337
H223       H    0.0110314796   -0.0907676664   -0.2605921292         -0.3307
O224       O    0.0228502085   -0.0609223170   -0.2142825611         -0.3205
C185       C   -0.0000000000    0.0000000000    0.3582804853          0.6589
C186       C   -0.0319468864    0.0018459987    0.3388249881          0.6551
C187       C   -0.0326094423    0.0029042545    0.3014590339          0.6561
C188       C   -0.0011552803    0.0027735593    0.2810962929         -0.3385
C189       C    0.0305387273    0.0034339836    0.3012364255         -0.3326
C190       C    0.0307745678    0.0011893989    0.3382902536         -0.3347
N191       N   -0.0012887133    0.0021796537    0.2443309794         -0.3389
Cl192     Cl   -0.0755354655    0.0053562771    0.2803085217           0.651
H193       H   -0.0584624795    0.0024890363    0.3532458482           0.651
H194       H    0.0570616376    0.0013612449    0.3527659493         -0.3301
C195       C    0.0835784584   -0.0181641306    0.2663648882          0.6579
N196       N    0.0216020543   -0.0011845070    0.2166257469         -0.3377
C197       C    0.0107576177   -0.0006048552    0.1779659657         -0.3389
C198       C   -0.0000000000    0.0000000000    0.1417195147           -0.34
H199       H   -0.0293299223    0.0052626848    0.1381992901          0.6596
H200       H    0.0404455961   -0.0060722569    0.1824956624         -0.3385
H201       H    0.1086057025   -0.0250984560    0.2817307965          0.6561
H202       H    0.0660185906   -0.0425237643    0.2626355172          0.6337
H203       H    0.0911863076   -0.0067468590    0.2394078708         -0.3307
O204       O    0.0641931519    0.0106254402    0.2857174389         -0.3205
loop_
_geom_bond_atom_site_label_1
_geom_bond_atom_site_label_2
_geom_bond_distance
_geom_bond_site_symmetry_2
_ccdc_geom_bond_type
Zn1          O5 1.942       .   S
Zn1          O6 1.922       .   S
Zn1         O10 1.922       .   S
Zn1         O17 1.922       .   S
Zn2          O5 1.942       .   S
Zn2          O7 1.922       .   S
Zn2          O9 1.922       .   S
Zn2         O13 1.922       .   S
Zn3          O5 1.942       .   S
Zn3          O8 1.922       .   S
Zn3         O11 1.922       .   S
Zn3         O14 1.922       .   S
Zn4          O5 1.942       .   S
Zn4         O12 1.922       .   S
Zn4         O15 1.922       .   S
Zn4         O16 1.922       .   S
O6          C18 1.304       .   A
O7          C19 1.304       .   A
O8          C20 1.304       .   A
O9          C18 1.304       .   A
O10         C20 1.304       .   A
O11         C19 1.304       .   A
O12         C21 1.304       .   A
O13         C22 1.304       .   A
O14         C21 1.304       .   A
O15         C22 1.304       .   A
O16         C23 1.304       .   A
O17         C23 1.304       .   A
C18        C278 1.540       .   S
C19        C245 1.540       .   S
C20        C205 1.540       .   S
C21        C298 1.540       .   S
C22        C198 1.540       .   S
C23        C225 1.540       .   S
Zn24        O28 1.942       .   S
Zn24        O29 1.922       .   S
Zn24        O33 1.922       .   S
Zn24        O40 1.922       .   S
Zn25        O28 1.942       .   S
Zn25        O30 1.922       .   S
Zn25        O32 1.922       .   S
Zn25        O36 1.922       .   S
Zn26        O28 1.942       .   S
Zn26        O31 1.922       .   S
Zn26        O34 1.922       .   S
Zn26        O37 1.922       .   S
Zn27        O28 1.942       .   S
Zn27        O35 1.922       .   S
Zn27        O38 1.922       .   S
Zn27        O39 1.922       .   S
O29         C41 1.304       .   A
O30         C42 1.304       .   A
O31         C43 1.304       .   A
O32         C41 1.304       .   A
O33         C43 1.304       .   A
O34         C42 1.304       .   A
O35         C44 1.304       .   A
O36         C45 1.304       .   A
O37         C44 1.304       .   A
O38         C45 1.304       .   A
O39         C46 1.304       .   A
O40         C46 1.304       .   A
C41        C185 1.540   1_655   S
C42        C305 1.540       .   S
C43        C345 1.540       .   S
C44        C218 1.540   1_656   S
C45        C365 1.540       .   S
C46        C325 1.540       .   S
Zn47        O51 1.942       .   S
Zn47        O52 1.922       .   S
Zn47        O56 1.922       .   S
Zn47        O63 1.922       .   S
Zn48        O51 1.942       .   S
Zn48        O53 1.922       .   S
Zn48        O55 1.922       .   S
Zn48        O59 1.922       .   S
Zn49        O51 1.942       .   S
Zn49        O54 1.922       .   S
Zn49        O57 1.922       .   S
Zn49        O60 1.922       .   S
Zn50        O51 1.942       .   S
Zn50        O58 1.922       .   S
Zn50        O61 1.922       .   S
Zn50        O62 1.922       .   S
O52         C64 1.304       .   A
O53         C65 1.304       .   A
O54         C66 1.304       .   A
O55         C64 1.304       .   A
O56         C66 1.304       .   A
O57         C65 1.304       .   A
O58         C67 1.304       .   A
O59         C68 1.304       .   A
O60         C67 1.304       .   A
O61         C68 1.304       .   A
O62         C69 1.304       .   A
O63         C69 1.304       .   A
C64        C265 1.540   1_655   S
C65        C385 1.540       .   S
C66        C425 1.540       .   S
C67        C285 1.540   1_665   S
C68        C458 1.540       .   S
C69        C418 1.540       .   S
Zn70        O74 1.942       .   S
Zn70        O75 1.922       .   S
Zn70        O79 1.922       .   S
Zn70        O86 1.922       .   S
Zn71        O74 1.942       .   S
Zn71        O76 1.922       .   S
Zn71        O78 1.922       .   S
Zn71        O82 1.922       .   S
Zn72        O74 1.942       .   S
Zn72        O77 1.922       .   S
Zn72        O80 1.922       .   S
Zn72        O83 1.922       .   S
Zn73        O74 1.942       .   S
Zn73        O81 1.922       .   S
Zn73        O84 1.922       .   S
Zn73        O85 1.922       .   S
O75         C87 1.304       .   A
O76         C88 1.304       .   A
O77         C89 1.304       .   A
O78         C87 1.304       .   A
O79         C89 1.304       .   A
O80         C88 1.304       .   A
O81         C90 1.304       .   A
O82         C91 1.304       .   A
O83         C90 1.304       .   A
O84         C91 1.304       .   A
O85         C92 1.304       .   A
O86         C92 1.304       .   A
C87        C358 1.540       .   S
C88        C398 1.540       .   S
C89        C485 1.540       .   S
C90        C378 1.540   1_565   S
C91        C465 1.540       .   S
C92        C405 1.540   1_556   S
Zn93        O97 1.942       .   S
Zn93        O98 1.922       .   S
Zn93       O102 1.922       .   S
Zn93       O109 1.922       .   S
Zn94        O97 1.942       .   S
Zn94        O99 1.922       .   S
Zn94       O101 1.922       .   S
Zn94       O105 1.922       .   S
Zn95        O97 1.942       .   S
Zn95       O100 1.922       .   S
Zn95       O103 1.922       .   S
Zn95       O106 1.922       .   S
Zn96        O97 1.942       .   S
Zn96       O104 1.922       .   S
Zn96       O107 1.922       .   S
Zn96       O108 1.922       .   S
O98        C110 1.304       .   A
O99        C111 1.304       .   A
O100       C112 1.304       .   A
O101       C110 1.304       .   A
O102       C112 1.304       .   A
O103       C111 1.304       .   A
O104       C113 1.304       .   A
O105       C114 1.304       .   A
O106       C113 1.304       .   A
O107       C114 1.304       .   A
O108       C115 1.304       .   A
O109       C115 1.304       .   A
C110       C238 1.540   1_565   S
C111       C505 1.540       .   S
C112       C578 1.540       .   S
C113       C258 1.540   1_665   S
C114       C545 1.540       .   S
C115       C525 1.540       .   S
Zn116      O120 1.942       .   S
Zn116      O121 1.922       .   S
Zn116      O125 1.922       .   S
Zn116      O132 1.922       .   S
Zn117      O120 1.942       .   S
Zn117      O122 1.922       .   S
Zn117      O124 1.922       .   S
Zn117      O128 1.922       .   S
Zn118      O120 1.942       .   S
Zn118      O123 1.922       .   S
Zn118      O126 1.922       .   S
Zn118      O129 1.922       .   S
Zn119      O120 1.942       .   S
Zn119      O127 1.922       .   S
Zn119      O130 1.922       .   S
Zn119      O131 1.922       .   S
O121       C133 1.304       .   A
O122       C134 1.304       .   A
O123       C135 1.304       .   A
O124       C133 1.304       .   A
O125       C135 1.304       .   A
O126       C134 1.304       .   A
O127       C136 1.304       .   A
O128       C137 1.304       .   A
O129       C136 1.304       .   A
O130       C137 1.304       .   A
O131       C138 1.304       .   A
O132       C138 1.304       .   A
C133       C318 1.540   1_465   S
C134       C518 1.540       .   S
C135       C585 1.540       .   S
C136       C338 1.540   1_565   S
C137       C605 1.540       .   S
C138       C538 1.540   1_556   S
Zn139      O143 1.942       .   S
Zn139      O144 1.922       .   S
Zn139      O148 1.922       .   S
Zn139      O155 1.922       .   S
Zn140      O143 1.942       .   S
Zn140      O145 1.922       .   S
Zn140      O147 1.922       .   S
Zn140      O151 1.922       .   S
Zn141      O143 1.942       .   S
Zn141      O146 1.922       .   S
Zn141      O149 1.922       .   S
Zn141      O152 1.922       .   S
Zn142      O143 1.942       .   S
Zn142      O150 1.922       .   S
Zn142      O153 1.922       .   S
Zn142      O154 1.922       .   S
O144       C156 1.304       .   A
O145       C157 1.304       .   A
O146       C158 1.304       .   A
O147       C156 1.304       .   A
O148       C158 1.304       .   A
O149       C157 1.304       .   A
O150       C159 1.304       .   A
O151       C160 1.304       .   A
O152       C159 1.304       .   A
O153       C160 1.304       .   A
O154       C161 1.304       .   A
O155       C161 1.304       .   A
C156       C438 1.540   1_455   S
C157       C558 1.540   1_545   S
C158       C645 1.540       .   S
C159       C445 1.540       .   S
C160       C638 1.540       .   S
C161       C565 1.540       .   S
Zn162      O166 1.942       .   S
Zn162      O167 1.922       .   S
Zn162      O171 1.922       .   S
Zn162      O178 1.922       .   S
Zn163      O166 1.942       .   S
Zn163      O168 1.922       .   S
Zn163      O170 1.922       .   S
Zn163      O174 1.922       .   S
Zn164      O166 1.942       .   S
Zn164      O169 1.922       .   S
Zn164      O172 1.922       .   S
Zn164      O175 1.922       .   S
Zn165      O166 1.942       .   S
Zn165      O173 1.922       .   S
Zn165      O176 1.922       .   S
Zn165      O177 1.922       .   S
O167       C179 1.304       .   A
O168       C180 1.304       .   A
O169       C181 1.304       .   A
O170       C179 1.304       .   A
O171       C181 1.304       .   A
O172       C180 1.304       .   A
O173       C182 1.304       .   A
O174       C183 1.304       .   A
O175       C182 1.304       .   A
O176       C183 1.304       .   A
O177       C184 1.304       .   A
O178       C184 1.304       .   A
C179       C478 1.540   1_455   S
C180       C598 1.540   1_545   S
C181       C625 1.540       .   S
C182       C498 1.540       .   S
C183       C658 1.540   1_556   S
C184       C618 1.540       .   S
C645       C646 0.033       .   A
C645       C650 0.033       .   A
C646       C647 0.033       .   A
C646       H653 0.027       .   A
C647       C648 0.033       .   A
C647      Cl652 0.043       .   A
C648       C649 0.033       .   A
C648       N651 0.033       .   A
C649       C650 0.033       .   A
C649       O664 0.033       .   A
C650       H654 0.027       .   A
N651       N656 0.032       .   A
C655       H661 0.027       .   A
C655       H662 0.027       .   A
C655       H663 0.027       .   A
C655       O664 0.035       .   A
N656       C657 0.036       .   A
C657       C658 0.034       .   A
C657       H660 0.027       .   A
C658       H659 0.027       .   A
C625       C626 0.033       .   A
C625       C630 0.033       .   A
C626       C627 0.033       .   A
C626       H633 0.027       .   A
C627       C628 0.033       .   A
C627      Cl632 0.043       .   A
C628       C629 0.033       .   A
C628       N631 0.033       .   A
C629       C630 0.033       .   A
C629       O644 0.033       .   A
C630       H634 0.027       .   A
N631       N636 0.032       .   A
C635       H641 0.027       .   A
C635       H642 0.027       .   A
C635       H643 0.027       .   A
C635       O644 0.035       .   A
N636       C637 0.036       .   A
C637       C638 0.034       .   A
C637       H640 0.027       .   A
C638       H639 0.027       .   A
C605       C606 0.033       .   A
C605       C610 0.033       .   A
C606       C607 0.033       .   A
C606       H613 0.027       .   A
C607       C608 0.033       .   A
C607      Cl612 0.043       .   A
C608       C609 0.033       .   A
C608       N611 0.033       .   A
C609       C610 0.033       .   A
C609       O624 0.033       .   A
C610       H614 0.027       .   A
N611       N616 0.032       .   A
C615       H621 0.027       .   A
C615       H622 0.027       .   A
C615       H623 0.027       .   A
C615       O624 0.035       .   A
N616       C617 0.036       .   A
C617       C618 0.034       .   A
C617       H620 0.027       .   A
C618       H619 0.027       .   A
C585       C586 0.033       .   A
C585       C590 0.033       .   A
C586       C587 0.033       .   A
C586       H593 0.027       .   A
C587       C588 0.033       .   A
C587      Cl592 0.043       .   A
C588       C589 0.033       .   A
C588       N591 0.033       .   A
C589       C590 0.033       .   A
C589       O604 0.033       .   A
C590       H594 0.027       .   A
N591       N596 0.032       .   A
C595       H601 0.027       .   A
C595       H602 0.027       .   A
C595       H603 0.027       .   A
C595       O604 0.035       .   A
N596       C597 0.036       .   A
C597       C598 0.034       .   A
C597       H600 0.027       .   A
C598       H599 0.027       .   A
C565       C566 0.033       .   A
C565       C570 0.033       .   A
C566       C567 0.033       .   A
C566       H573 0.027       .   A
C567       C568 0.033       .   A
C567      Cl572 0.043       .   A
C568       C569 0.033       .   A
C568       N571 0.033       .   A
C569       C570 0.033       .   A
C569       O584 0.033       .   A
C570       H574 0.027       .   A
N571       N576 0.032       .   A
C575       H581 0.027       .   A
C575       H582 0.027       .   A
C575       H583 0.027       .   A
C575       O584 0.035       .   A
N576       C577 0.036       .   A
C577       C578 0.034       .   A
C577       H580 0.027       .   A
C578       H579 0.027       .   A
C545       C546 0.033       .   A
C545       C550 0.033       .   A
C546       C547 0.033       .   A
C546       H553 0.027       .   A
C547       C548 0.033       .   A
C547      Cl552 0.043       .   A
C548       C549 0.033       .   A
C548       N551 0.033       .   A
C549       C550 0.033       .   A
C549       O564 0.033       .   A
C550       H554 0.027       .   A
N551       N556 0.032       .   A
C555       H561 0.027       .   A
C555       H562 0.027       .   A
C555       H563 0.027       .   A
C555       O564 0.035       .   A
N556       C557 0.036       .   A
C557       C558 0.034       .   A
C557       H560 0.027       .   A
C558       H559 0.027       .   A
C525       C526 0.033       .   A
C525       C530 0.033       .   A
C526       C527 0.033       .   A
C526       H533 0.027       .   A
C527       C528 0.033       .   A
C527      Cl532 0.043       .   A
C528       C529 0.033       .   A
C528       N531 0.033       .   A
C529       C530 0.033       .   A
C529       O544 0.033       .   A
C530       H534 0.027       .   A
N531       N536 0.032       .   A
C535       H541 0.027       .   A
C535       H542 0.027       .   A
C535       H543 0.027       .   A
C535       O544 0.035       .   A
N536       C537 0.036       .   A
C537       C538 0.034       .   A
C537       H540 0.027       .   A
C538       H539 0.027       .   A
C505       C506 0.033       .   A
C505       C510 0.033       .   A
C506       C507 0.033       .   A
C506       H513 0.027       .   A
C507       C508 0.033       .   A
C507      Cl512 0.043       .   A
C508       C509 0.033       .   A
C508       N511 0.033       .   A
C509       C510 0.033       .   A
C509       O524 0.033       .   A
C510       H514 0.027       .   A
N511       N516 0.032       .   A
C515       H521 0.027       .   A
C515       H522 0.027       .   A
C515       H523 0.027       .   A
C515       O524 0.035       .   A
N516       C517 0.036       .   A
C517       C518 0.034       .   A
C517       H520 0.027       .   A
C518       H519 0.027       .   A
C485       C486 0.033       .   A
C485       C490 0.033       .   A
C486       C487 0.033       .   A
C486       H493 0.027       .   A
C487       C488 0.033       .   A
C487      Cl492 0.043       .   A
C488       C489 0.033       .   A
C488       N491 0.033       .   A
C489       C490 0.033       .   A
C489       O504 0.033       .   A
C490       H494 0.027       .   A
N491       N496 0.032       .   A
C495       H501 0.027       .   A
C495       H502 0.027       .   A
C495       H503 0.027       .   A
C495       O504 0.035       .   A
N496       C497 0.036       .   A
C497       C498 0.034       .   A
C497       H500 0.027       .   A
C498       H499 0.027       .   A
C465       C466 0.033       .   A
C465       C470 0.033       .   A
C466       C467 0.033       .   A
C466       H473 0.027       .   A
C467       C468 0.033       .   A
C467      Cl472 0.043       .   A
C468       C469 0.033       .   A
C468       N471 0.033       .   A
C469       C470 0.033       .   A
C469       O484 0.033       .   A
C470       H474 0.027       .   A
N471       N476 0.032       .   A
C475       H481 0.027       .   A
C475       H482 0.027       .   A
C475       H483 0.027       .   A
C475       O484 0.035       .   A
N476       C477 0.036       .   A
C477       C478 0.034       .   A
C477       H480 0.027       .   A
C478       H479 0.027       .   A
C445       C446 0.033       .   A
C445       C450 0.033       .   A
C446       C447 0.033       .   A
C446       H453 0.027       .   A
C447       C448 0.033       .   A
C447      Cl452 0.043       .   A
C448       C449 0.033       .   A
C448       N451 0.033       .   A
C449       C450 0.033       .   A
C449       O464 0.033       .   A
C450       H454 0.027       .   A
N451       N456 0.032       .   A
C455       H461 0.027       .   A
C455       H462 0.027       .   A
C455       H463 0.027       .   A
C455       O464 0.035       .   A
N456       C457 0.036       .   A
C457       C458 0.034       .   A
C457       H460 0.027       .   A
C458       H459 0.027       .   A
C425       C426 0.033       .   A
C425       C430 0.033       .   A
C426       C427 0.033       .   A
C426       H433 0.027       .   A
C427       C428 0.033       .   A
C427      Cl432 0.043       .   A
C428       C429 0.033       .   A
C428       N431 0.033       .   A
C429       C430 0.033       .   A
C429       O444 0.033       .   A
C430       H434 0.027       .   A
N431       N436 0.032       .   A
C435       H441 0.027       .   A
C435       H442 0.027       .   A
C435       H443 0.027       .   A
C435       O444 0.035       .   A
N436       C437 0.036       .   A
C437       C438 0.034       .   A
C437       H440 0.027       .   A
C438       H439 0.027       .   A
C405       C406 0.033       .   A
C405       C410 0.033       .   A
C406       C407 0.033       .   A
C406       H413 0.027       .   A
C407       C408 0.033       .   A
C407      Cl412 0.043       .   A
C408       C409 0.033       .   A
C408       N411 0.033       .   A
C409       C410 0.033       .   A
C409       O424 0.033       .   A
C410       H414 0.027       .   A
N411       N416 0.032       .   A
C415       H421 0.027       .   A
C415       H422 0.027       .   A
C415       H423 0.027       .   A
C415       O424 0.035       .   A
N416       C417 0.036       .   A
C417       C418 0.034       .   A
C417       H420 0.027       .   A
C418       H419 0.027       .   A
C385       C386 0.033       .   A
C385       C390 0.033       .   A
C386       C387 0.033       .   A
C386       H393 0.027       .   A
C387       C388 0.033       .   A
C387      Cl392 0.043       .   A
C388       C389 0.033       .   A
C388       N391 0.033       .   A
C389       C390 0.033       .   A
C389       O404 0.033       .   A
C390       H394 0.027       .   A
N391       N396 0.032       .   A
C395       H401 0.027       .   A
C395       H402 0.027       .   A
C395       H403 0.027       .   A
C395       O404 0.035       .   A
N396       C397 0.036       .   A
C397       C398 0.034       .   A
C397       H400 0.027       .   A
C398       H399 0.027       .   A
C365       C366 0.033       .   A
C365       C370 0.033       .   A
C366       C367 0.033       .   A
C366       H373 0.027       .   A
C367       C368 0.033       .   A
C367      Cl372 0.043       .   A
C368       C369 0.033       .   A
C368       N371 0.033       .   A
C369       C370 0.033       .   A
C369       O384 0.033       .   A
C370       H374 0.027       .   A
N371       N376 0.032       .   A
C375       H381 0.027       .   A
C375       H382 0.027       .   A
C375       H383 0.027       .   A
C375       O384 0.035       .   A
N376       C377 0.036       .   A
C377       C378 0.034       .   A
C377       H380 0.027       .   A
C378       H379 0.027       .   A
C345       C346 0.033       .   A
C345       C350 0.033       .   A
C346       C347 0.033       .   A
C346       H353 0.027       .   A
C347       C348 0.033       .   A
C347      Cl352 0.043       .   A
C348       C349 0.033       .   A
C348       N351 0.033       .   A
C349       C350 0.033       .   A
C349       O364 0.033       .   A
C350       H354 0.027       .   A
N351       N356 0.032       .   A
C355       H361 0.027       .   A
C355       H362 0.027       .   A
C355       H363 0.027       .   A
C355       O364 0.035       .   A
N356       C357 0.036       .   A
C357       C358 0.034       .   A
C357       H360 0.027       .   A
C358       H359 0.027       .   A
C325       C326 0.033       .   A
C325       C330 0.033       .   A
C326       C327 0.033       .   A
C326       H333 0.027       .   A
C327       C328 0.033       .   A
C327      Cl332 0.043       .   A
C328       C329 0.033       .   A
C328       N331 0.033       .   A
C329       C330 0.033       .   A
C329       O344 0.033       .   A
C330       H334 0.027       .   A
N331       N336 0.032       .   A
C335       H341 0.027       .   A
C335       H342 0.027       .   A
C335       H343 0.027       .   A
C335       O344 0.035       .   A
N336       C337 0.036       .   A
C337       C338 0.034       .   A
C337       H340 0.027       .   A
C338       H339 0.027       .   A
C305       C306 0.033       .   A
C305       C310 0.033       .   A
C306       C307 0.033       .   A
C306       H313 0.027       .   A
C307       C308 0.033       .   A
C307      Cl312 0.043       .   A
C308       C309 0.033       .   A
C308       N311 0.033       .   A
C309       C310 0.033       .   A
C309       O324 0.033       .   A
C310       H314 0.027       .   A
N311       N316 0.032       .   A
C315       H321 0.027       .   A
C315       H322 0.027       .   A
C315       H323 0.027       .   A
C315       O324 0.035       .   A
N316       C317 0.036       .   A
C317       C318 0.034       .   A
C317       H320 0.027       .   A
C318       H319 0.027       .   A
C285       C286 0.033       .   A
C285       C290 0.033       .   A
C286       C287 0.033       .   A
C286       H293 0.027       .   A
C287       C288 0.033       .   A
C287      Cl292 0.043       .   A
C288       C289 0.033       .   A
C288       N291 0.033       .   A
C289       C290 0.033       .   A
C289       O304 0.033       .   A
C290       H294 0.027       .   A
N291       N296 0.032       .   A
C295       H301 0.027       .   A
C295       H302 0.027       .   A
C295       H303 0.027       .   A
C295       O304 0.035       .   A
N296       C297 0.036       .   A
C297       C298 0.034       .   A
C297       H300 0.027       .   A
C298       H299 0.027       .   A
C265       C266 0.033       .   A
C265       C270 0.033       .   A
C266       C267 0.033       .   A
C266       H273 0.027       .   A
C267       C268 0.033       .   A
C267      Cl272 0.043       .   A
C268       C269 0.033       .   A
C268       N271 0.033       .   A
C269       C270 0.033       .   A
C269       O284 0.033       .   A
C270       H274 0.027       .   A
N271       N276 0.032       .   A
C275       H281 0.027       .   A
C275       H282 0.027       .   A
C275       H283 0.027       .   A
C275       O284 0.035       .   A
N276       C277 0.036       .   A
C277       C278 0.034       .   A
C277       H280 0.027       .   A
C278       H279 0.027       .   A
C245       C246 0.033       .   A
C245       C250 0.033       .   A
C246       C247 0.033       .   A
C246       H253 0.027       .   A
C247       C248 0.033       .   A
C247      Cl252 0.043       .   A
C248       C249 0.033       .   A
C248       N251 0.033       .   A
C249       C250 0.033       .   A
C249       O264 0.033       .   A
C250       H254 0.027       .   A
N251       N256 0.032       .   A
C255       H261 0.027       .   A
C255       H262 0.027       .   A
C255       H263 0.027       .   A
C255       O264 0.035       .   A
N256       C257 0.036       .   A
C257       C258 0.034       .   A
C257       H260 0.027       .   A
C258       H259 0.027       .   A
C225       C226 0.033       .   A
C225       C230 0.033       .   A
C226       C227 0.033       .   A
C226       H233 0.027       .   A
C227       C228 0.033       .   A
C227      Cl232 0.043       .   A
C228       C229 0.033       .   A
C228       N231 0.033       .   A
C229       C230 0.033       .   A
C229       O244 0.033       .   A
C230       H234 0.027       .   A
N231       N236 0.032       .   A
C235       H241 0.027       .   A
C235       H242 0.027       .   A
C235       H243 0.027       .   A
C235       O244 0.035       .   A
N236       C237 0.036       .   A
C237       C238 0.034       .   A
C237       H240 0.027       .   A
C238       H239 0.027       .   A
C205       C206 0.033       .   A
C205       C210 0.033       .   A
C206       C207 0.033       .   A
C206       H213 0.027       .   A
C207       C208 0.033       .   A
C207      Cl212 0.043       .   A
C208       C209 0.033       .   A
C208       N211 0.033       .   A
C209       C210 0.033       .   A
C209       O224 0.033       .   A
C210       H214 0.027       .   A
N211       N216 0.032       .   A
C215       H221 0.027       .   A
C215       H222 0.027       .   A
C215       H223 0.027       .   A
C215       O224 0.035       .   A
N216       C217 0.036       .   A
C217       C218 0.034       .   A
C217       H220 0.027       .   A
C218       H219 0.027       .   A
C185       C186 0.033       .   A
C185       C190 0.033       .   A
C186       C187 0.033       .   A
C186       H193 0.027       .   A
C187       C188 0.033       .   A
C187      Cl192 0.043       .   A
C188       C189 0.033       .   A
C188       N191 0.033       .   A
C189       C190 0.033       .   A
C189       O204 0.033       .   A
C190       H194 0.027       .   A
N191       N196 0.032       .   A
C195       H201 0.027       .   A
C195       H202 0.027       .   A
C195       H203 0.027       .   A
C195       O204 0.035       .   A
N196       C197 0.036       .   A
C197       C198 0.034       .   A
C197       H200 0.027       .   A
C198       H199 0.027       .   A
