data_pcu_v1-6c_Zn_1_Ch_1-18_fer_tobacco
_audit_creation_date              2021-02-03
_audit_creation_method            'tobacco_3.0'
_symmetry_space_group_name_H-M    'P1'
_symmetry_Int_Tables_number       1
_symmetry_cell_setting            triclinic
loop_
_symmetry_equiv_pos_as_xyz
  x,y,z
_cell_length_a                    39.63822503000351
_cell_length_b                    39.63822503000351
_cell_length_c                    39.63822503000351
_cell_angle_alpha                 90.0
_cell_angle_beta                  90.0
_cell_angle_gamma                 90.0
loop_
_atom_site_label
_atom_site_type_symbol
_atom_site_fract_x
_atom_site_fract_y
_atom_site_fract_z
_atom_site_charge
Zn1       Zn   -0.0282858276   -0.0282858276    0.0282858276          1.4972
Zn2       Zn    0.0282858276    0.0282858276    0.0282858276          1.4936
Zn3       Zn    0.0282858276   -0.0282858276   -0.0282858276          1.4911
Zn4       Zn   -0.0282858276    0.0282858276   -0.0282858276          1.4948
O5         O    0.0000000000    0.0000000000    0.0000000000          -2.239
O6         O   -0.0207880146   -0.0207880146    0.0755987433         -1.1453
O7         O    0.0755987433    0.0207880146    0.0207880146         -1.1435
O8         O    0.0207880146   -0.0755987433   -0.0207880146         -1.1387
O9         O    0.0207880146    0.0207880146    0.0755987433         -1.1455
O10        O   -0.0207880146   -0.0755987433    0.0207880146         -1.1414
O11        O    0.0755987433   -0.0207880146   -0.0207880146         -1.1473
O12        O   -0.0207880146    0.0207880146   -0.0755987433         -1.1412
O13        O    0.0207880146    0.0755987433    0.0207880146         -1.1488
O14        O    0.0207880146   -0.0207880146   -0.0755987433         -1.1427
O15        O   -0.0207880146    0.0755987433   -0.0207880146         -1.1473
O16        O   -0.0755987433    0.0207880146   -0.0207880146         -1.1464
O17        O   -0.0755987433   -0.0207880146    0.0207880146         -1.1443
C18        C   -0.0000000000   -0.0000000000    0.0903874984          0.3736
C19        C    0.0903874984   -0.0000000000   -0.0000000000          0.3785
C20        C   -0.0000000000   -0.0903874984    0.0000000000          0.3681
C21        C    0.0000000000    0.0000000000   -0.0903874984          0.3719
C22        C    0.0000000000    0.0903874984   -0.0000000000          0.3832
C23        C   -0.0903874984    0.0000000000    0.0000000000          0.3737
Zn24      Zn    0.9717141724    0.0282858276    0.4717141724          1.4972
Zn25      Zn    1.0282858276   -0.0282858276    0.4717141724          1.4936
Zn26      Zn    1.0282858276    0.0282858276    0.5282858276          1.4911
Zn27      Zn    0.9717141724   -0.0282858276    0.5282858276          1.4948
O28        O    1.0000000000    0.0000000000    0.5000000000          -2.239
O29        O    0.9792119854    0.0207880146    0.4244012567         -1.1453
O30        O    1.0755987433   -0.0207880146    0.4792119854         -1.1435
O31        O    1.0207880146    0.0755987433    0.5207880146         -1.1387
O32        O    1.0207880146   -0.0207880146    0.4244012567         -1.1455
O33        O    0.9792119854    0.0755987433    0.4792119854         -1.1414
O34        O    1.0755987433    0.0207880146    0.5207880146         -1.1473
O35        O    0.9792119854   -0.0207880146    0.5755987433         -1.1412
O36        O    1.0207880146   -0.0755987433    0.4792119854         -1.1488
O37        O    1.0207880146    0.0207880146    0.5755987433         -1.1427
O38        O    0.9792119854   -0.0755987433    0.5207880146         -1.1473
O39        O    0.9244012567   -0.0207880146    0.5207880146         -1.1464
O40        O    0.9244012567    0.0207880146    0.4792119854         -1.1443
C41        C    1.0000000000    0.0000000000    0.4096125016          0.3736
C42        C    1.0903874984    0.0000000000    0.5000000000          0.3785
C43        C    1.0000000000    0.0903874984    0.5000000000          0.3681
C44        C    1.0000000000    0.0000000000    0.5903874984          0.3719
C45        C    1.0000000000   -0.0903874984    0.5000000000          0.3832
C46        C    0.9096125016    0.0000000000    0.5000000000          0.3737
Zn47      Zn    1.0282858276    0.4717141724   -0.0282858276          1.4972
Zn48      Zn    0.9717141724    0.4717141724    0.0282858276          1.4936
Zn49      Zn    1.0282858276    0.5282858276    0.0282858276          1.4911
Zn50      Zn    0.9717141724    0.5282858276   -0.0282858276          1.4948
O51        O    1.0000000000    0.5000000000    0.0000000000          -2.239
O52        O    1.0207880146    0.4244012567   -0.0207880146         -1.1453
O53        O    0.9792119854    0.4792119854    0.0755987433         -1.1435
O54        O    1.0755987433    0.5207880146    0.0207880146         -1.1387
O55        O    0.9792119854    0.4244012567    0.0207880146         -1.1455
O56        O    1.0755987433    0.4792119854   -0.0207880146         -1.1414
O57        O    1.0207880146    0.5207880146    0.0755987433         -1.1473
O58        O    0.9792119854    0.5755987433   -0.0207880146         -1.1412
O59        O    0.9244012567    0.4792119854    0.0207880146         -1.1488
O60        O    1.0207880146    0.5755987433    0.0207880146         -1.1427
O61        O    0.9244012567    0.5207880146   -0.0207880146         -1.1473
O62        O    0.9792119854    0.5207880146   -0.0755987433         -1.1464
O63        O    1.0207880146    0.4792119854   -0.0755987433         -1.1443
C64        C    1.0000000000    0.4096125016    0.0000000000          0.3736
C65        C    1.0000000000    0.5000000000    0.0903874984          0.3785
C66        C    1.0903874984    0.5000000000    0.0000000000          0.3681
C67        C    1.0000000000    0.5903874984    0.0000000000          0.3719
C68        C    0.9096125016    0.5000000000    0.0000000000          0.3832
C69        C    1.0000000000    0.5000000000   -0.0903874984          0.3737
Zn70      Zn    0.9717141724    0.4717141724    0.5282858276          1.4972
Zn71      Zn    1.0282858276    0.4717141724    0.4717141724          1.4936
Zn72      Zn    0.9717141724    0.5282858276    0.4717141724          1.4911
Zn73      Zn    1.0282858276    0.5282858276    0.5282858276          1.4948
O74        O    1.0000000000    0.5000000000    0.5000000000          -2.239
O75        O    0.9792119854    0.4244012567    0.5207880146         -1.1453
O76        O    1.0207880146    0.4792119854    0.4244012567         -1.1435
O77        O    0.9244012567    0.5207880146    0.4792119854         -1.1387
O78        O    1.0207880146    0.4244012567    0.4792119854         -1.1455
O79        O    0.9244012567    0.4792119854    0.5207880146         -1.1414
O80        O    0.9792119854    0.5207880146    0.4244012567         -1.1473
O81        O    1.0207880146    0.5755987433    0.5207880146         -1.1412
O82        O    1.0755987433    0.4792119854    0.4792119854         -1.1488
O83        O    0.9792119854    0.5755987433    0.4792119854         -1.1427
O84        O    1.0755987433    0.5207880146    0.5207880146         -1.1473
O85        O    1.0207880146    0.5207880146    0.5755987433         -1.1464
O86        O    0.9792119854    0.4792119854    0.5755987433         -1.1443
C87        C    1.0000000000    0.4096125016    0.5000000000          0.3736
C88        C    1.0000000000    0.5000000000    0.4096125016          0.3785
C89        C    0.9096125016    0.5000000000    0.5000000000          0.3681
C90        C    1.0000000000    0.5903874984    0.5000000000          0.3719
C91        C    1.0903874984    0.5000000000    0.5000000000          0.3832
C92        C    1.0000000000    0.5000000000    0.5903874984          0.3737
Zn93      Zn    0.4717141724    0.9717141724   -0.0282858276          1.4972
Zn94      Zn    0.4717141724    1.0282858276    0.0282858276          1.4936
Zn95      Zn    0.5282858276    0.9717141724    0.0282858276          1.4911
Zn96      Zn    0.5282858276    1.0282858276   -0.0282858276          1.4948
O97        O    0.5000000000    1.0000000000    0.0000000000          -2.239
O98        O    0.4244012567    0.9792119854   -0.0207880146         -1.1453
O99        O    0.4792119854    1.0207880146    0.0755987433         -1.1435
O100       O    0.5207880146    0.9244012567    0.0207880146         -1.1387
O101       O    0.4244012567    1.0207880146    0.0207880146         -1.1455
O102       O    0.4792119854    0.9244012567   -0.0207880146         -1.1414
O103       O    0.5207880146    0.9792119854    0.0755987433         -1.1473
O104       O    0.5755987433    1.0207880146   -0.0207880146         -1.1412
O105       O    0.4792119854    1.0755987433    0.0207880146         -1.1488
O106       O    0.5755987433    0.9792119854    0.0207880146         -1.1427
O107       O    0.5207880146    1.0755987433   -0.0207880146         -1.1473
O108       O    0.5207880146    1.0207880146   -0.0755987433         -1.1464
O109       O    0.4792119854    0.9792119854   -0.0755987433         -1.1443
C110       C    0.4096125016    1.0000000000    0.0000000000          0.3736
C111       C    0.5000000000    1.0000000000    0.0903874984          0.3785
C112       C    0.5000000000    0.9096125016    0.0000000000          0.3681
C113       C    0.5903874984    1.0000000000    0.0000000000          0.3719
C114       C    0.5000000000    1.0903874984    0.0000000000          0.3856
C115       C    0.5000000000    1.0000000000   -0.0903874984          0.3737
Zn116     Zn    0.4717141724    1.0282858276    0.5282858276          1.4972
Zn117     Zn    0.4717141724    0.9717141724    0.4717141724          1.4936
Zn118     Zn    0.5282858276    1.0282858276    0.4717141724          1.4911
Zn119     Zn    0.5282858276    0.9717141724    0.5282858276          1.4948
O120       O    0.5000000000    1.0000000000    0.5000000000          -2.239
O121       O    0.4244012567    1.0207880146    0.5207880146         -1.1453
O122       O    0.4792119854    0.9792119854    0.4244012567         -1.1435
O123       O    0.5207880146    1.0755987433    0.4792119854         -1.1387
O124       O    0.4244012567    0.9792119854    0.4792119854         -1.1455
O125       O    0.4792119854    1.0755987433    0.5207880146         -1.1414
O126       O    0.5207880146    1.0207880146    0.4244012567         -1.1473
O127       O    0.5755987433    0.9792119854    0.5207880146         -1.1412
O128       O    0.4792119854    0.9244012567    0.4792119854         -1.1488
O129       O    0.5755987433    1.0207880146    0.4792119854         -1.1427
O130       O    0.5207880146    0.9244012567    0.5207880146         -1.1473
O131       O    0.5207880146    0.9792119854    0.5755987433         -1.1464
O132       O    0.4792119854    1.0207880146    0.5755987433         -1.1443
C133       C    0.4096125016    1.0000000000    0.5000000000          0.3736
C134       C    0.5000000000    1.0000000000    0.4096125016          0.3785
C135       C    0.5000000000    1.0903874984    0.5000000000          0.3681
C136       C    0.5903874984    1.0000000000    0.5000000000          0.3719
C137       C    0.5000000000    0.9096125016    0.5000000000          0.3832
C138       C    0.5000000000    1.0000000000    0.5903874984          0.3737
Zn139     Zn    0.5282858276    0.5282858276    0.0282858276          1.4972
Zn140     Zn    0.4717141724    0.4717141724    0.0282858276          1.4936
Zn141     Zn    0.4717141724    0.5282858276   -0.0282858276          1.4911
Zn142     Zn    0.5282858276    0.4717141724   -0.0282858276          1.4948
O143       O    0.5000000000    0.5000000000    0.0000000000          -2.239
O144       O    0.5207880146    0.5207880146    0.0755987433         -1.1453
O145       O    0.4244012567    0.4792119854    0.0207880146         -1.1435
O146       O    0.4792119854    0.5755987433   -0.0207880146         -1.1387
O147       O    0.4792119854    0.4792119854    0.0755987433         -1.1455
O148       O    0.5207880146    0.5755987433    0.0207880146         -1.1414
O149       O    0.4244012567    0.5207880146   -0.0207880146         -1.1473
O150       O    0.5207880146    0.4792119854   -0.0755987433         -1.1412
O151       O    0.4792119854    0.4244012567    0.0207880146         -1.1488
O152       O    0.4792119854    0.5207880146   -0.0755987433         -1.1427
O153       O    0.5207880146    0.4244012567   -0.0207880146         -1.1473
O154       O    0.5755987433    0.4792119854   -0.0207880146         -1.1464
O155       O    0.5755987433    0.5207880146    0.0207880146         -1.1443
C156       C    0.5000000000    0.5000000000    0.0903874984          0.3736
C157       C    0.4096125016    0.5000000000    0.0000000000          0.3785
C158       C    0.5000000000    0.5903874984    0.0000000000          0.3681
C159       C    0.5000000000    0.5000000000   -0.0903874984          0.3719
C160       C    0.5000000000    0.4096125016    0.0000000000          0.3832
C161       C    0.5903874984    0.5000000000    0.0000000000          0.3737
Zn162     Zn    0.4717141724    0.5282858276    0.4717141724          1.4972
Zn163     Zn    0.4717141724    0.4717141724    0.5282858276          1.4936
Zn164     Zn    0.5282858276    0.4717141724    0.4717141724          1.4911
Zn165     Zn    0.5282858276    0.5282858276    0.5282858276          1.4948
O166       O    0.5000000000    0.5000000000    0.5000000000          -2.239
O167       O    0.4244012567    0.5207880146    0.4792119854         -1.1453
O168       O    0.4792119854    0.4244012567    0.5207880146         -1.1435
O169       O    0.5207880146    0.4792119854    0.4244012567         -1.1387
O170       O    0.4244012567    0.4792119854    0.5207880146         -1.1455
O171       O    0.4792119854    0.5207880146    0.4244012567         -1.1414
O172       O    0.5207880146    0.4244012567    0.4792119854         -1.1473
O173       O    0.5755987433    0.5207880146    0.5207880146         -1.1412
O174       O    0.4792119854    0.4792119854    0.5755987433         -1.1488
O175       O    0.5755987433    0.4792119854    0.4792119854         -1.1427
O176       O    0.5207880146    0.5207880146    0.5755987433         -1.1473
O177       O    0.5207880146    0.5755987433    0.5207880146         -1.1464
O178       O    0.4792119854    0.5755987433    0.4792119854         -1.1443
C179       C    0.4096125016    0.5000000000    0.5000000000          0.3736
C180       C    0.5000000000    0.4096125016    0.5000000000          0.3785
C181       C    0.5000000000    0.5000000000    0.4096125016          0.3681
C182       C    0.5903874984    0.5000000000    0.5000000000          0.3719
C183       C    0.5000000000    0.5000000000    0.5903874984          0.3832
C184       C    0.5000000000    0.5903874984    0.5000000000          0.3737
C783       C    0.5000000000    0.5000000000   -0.1292388848          0.5977
C784       C    0.5062439485    0.4725050663   -0.1480754417          0.5924
C785       C    0.5050034773    0.4729464631   -0.1818540926          0.5937
C786       C    0.4977935418    0.5008506623   -0.2001692754            -0.4
C787       C    0.4907891255    0.5285420401   -0.1807601426         -0.3942
C788       C    0.4918996449    0.5276863615   -0.1465755691         -0.3953
C789       C    0.4981237983    0.4996672193   -0.2352322318         -0.4001
H790       H    0.5115095524    0.4491554853   -0.1936127544          0.5882
H791       H    0.5128719368    0.4486073205   -0.1363057244          0.5867
H792       H    0.4852988295    0.5499996377   -0.1321243778         -0.3897
C793       C    0.4958683018    0.5889580997   -0.1855074707         -0.3984
H794       H    0.5231936403    0.5853190713   -0.1867528600          0.5783
H795       H    0.4883695603    0.5967448901   -0.1601524761         -0.3921
H796       H    0.4883169176    0.6083980264   -0.2035277723         -0.3918
O797       O    0.4790097619    0.5578556877   -0.1945890421          -0.384
C798       C    0.4975471796    0.4703995668   -0.2530214203         -0.3996
C799       C    0.4978451790    0.4690476928   -0.2869611901         -0.3996
C800       C    0.4993178020    0.4968519967   -0.3060856152          0.5992
C801       C    0.5005576902    0.5262545395   -0.2893704436          0.5981
C802       C    0.4998564981    0.5272397366   -0.2554023608          0.5985
C803       C    0.4997899627    0.4951251499   -0.3398141774           0.599
H804       H    0.4967824218    0.4443594209   -0.2989986506         -0.3987
H805       H    0.4955668951    0.4461153885   -0.2405909587          -0.398
H806       H    0.5024695822    0.5522399521   -0.2450929789          0.5963
F807       F    0.5029768721    0.5556808475   -0.3061391800          0.5962
C808       C    0.5000000000    0.5000000000   -0.3707611152           0.599
C757       C    0.5000000000    0.5000000000    0.1292388848          0.5977
C758       C    0.5274949337    0.4937560515    0.1480754417          0.5924
C759       C    0.5270535369    0.4949965227    0.1818540926          0.5937
C760       C    0.4991493377    0.5022064582    0.2001692754            -0.4
C761       C    0.4714579599    0.5092108745    0.1807601426         -0.3942
C762       C    0.4723136385    0.5081003551    0.1465755691         -0.3953
C763       C    0.5003327807    0.5018762017    0.2352322318         -0.4001
H764       H    0.5508445147    0.4884904476    0.1936127544          0.5882
H765       H    0.5513926795    0.4871280632    0.1363057244          0.5867
H766       H    0.4500003623    0.5147011705    0.1321243778         -0.3897
C767       C    0.4110419003    0.5041316982    0.1855074707         -0.3984
H768       H    0.4146809287    0.4768063597    0.1867528600          0.5783
H769       H    0.4032551099    0.5116304397    0.1601524761         -0.3921
H770       H    0.3916019736    0.5116830824    0.2035277723         -0.3918
O771       O    0.4421443123    0.5209902381    0.1945890421          -0.384
C772       C    0.5296004332    0.5024528204    0.2530214203         -0.3996
C773       C    0.5309523072    0.5021548210    0.2869611901         -0.3996
C774       C    0.5031480033    0.5006821980    0.3060856152          0.5992
C775       C    0.4737454605    0.4994423098    0.2893704436          0.5981
C776       C    0.4727602634    0.5001435019    0.2554023608          0.5985
C777       C    0.5048748501    0.5002100373    0.3398141774           0.599
H778       H    0.5556405791    0.5032175782    0.2989986506         -0.3987
H779       H    0.5538846115    0.5044331049    0.2405909587          -0.398
H780       H    0.4477600479    0.4975304178    0.2450929789          0.5963
F781       F    0.4443191525    0.4970231279    0.3061391800          0.5962
C782       C    0.5000000000    0.5000000000    0.3707611152           0.599
C731       C    0.5000000000    0.6292388848    0.5000000000          0.5977
C732       C    0.4885356949    0.6480754417    0.5257590369          0.5924
C733       C    0.4898382670    0.6818540926    0.5255669284          0.5937
C734       C    0.5023296456    0.7001692754    0.4995940009            -0.4
C735       C    0.5145780896    0.6807601426    0.4737899339         -0.3942
C736       C    0.5133225466    0.6465755691    0.4744136732         -0.3953
C737       C    0.5017758642    0.7352322318    0.5006907838         -0.4001
H738       H    0.4788360930    0.6936127544    0.5476416153          0.5882
H739       H    0.4773931951    0.6363057244    0.5479147851          0.5867
H740       H    0.5241307040    0.6321243778    0.4538069561         -0.3897
C741       C    0.5213277385    0.6855074707    0.4135376267         -0.3984
H742       H    0.4938159023    0.6867528600    0.4118011009          0.5783
H743       H    0.5301958445    0.6601524761    0.4073552384         -0.3921
H744       H    0.5325103968    0.7035277723    0.3959341524         -0.3918
O745       O    0.5318256128    0.6945890421    0.4473217211          -0.384
C746       C    0.4966580482    0.7530214203    0.5295132739         -0.3996
C747       C    0.4961032023    0.7869611901    0.5307815455         -0.3996
C748       C    0.5000579039    0.8060856152    0.5032205537          0.5992
C749       C    0.5045512706    0.7893704436    0.4741369414          0.5981
C750       C    0.5054304294    0.7554023608    0.4733066623          0.5985
C751       C    0.4992593964    0.8398141774    0.5048228400           0.599
H752       H    0.4923515363    0.7989986506    0.5552062302         -0.3987
H753       H    0.4938849141    0.7405909587    0.5537197310          -0.398
H754       H    0.5077218563    0.7450929789    0.4482749155          0.5963
F755       F    0.5078924074    0.8061391800    0.4448010104          0.5962
C756       C    0.5000000000    0.8707611152    0.5000000000           0.599
C705       C    0.5000000000    1.1292388848    0.5000000000          0.5977
C706       C    0.4725050663    1.1480754417    0.4937560515          0.5924
C707       C    0.4729464631    1.1818540926    0.4949965227          0.5937
C708       C    0.5008506623    1.2001692754    0.5022064582            -0.4
C709       C    0.5285420401    1.1807601426    0.5092108745         -0.3942
C710       C    0.5276863615    1.1465755691    0.5081003551         -0.3953
C711       C    0.4996672193    1.2352322318    0.5018762017         -0.4001
H712       H    0.4491554853    1.1936127544    0.4884904476          0.5882
H713       H    0.4486073205    1.1363057244    0.4871280632          0.5867
H714       H    0.5499996377    1.1321243778    0.5147011705         -0.3897
C715       C    0.5889580997    1.1855074707    0.5041316982         -0.3984
H716       H    0.5853190713    1.1867528600    0.4768063597          0.5783
H717       H    0.5967448901    1.1601524761    0.5116304397         -0.3921
H718       H    0.6083980264    1.2035277723    0.5116830824         -0.3918
O719       O    0.5578556877    1.1945890421    0.5209902381          -0.384
C720       C    0.4703995668    1.2530214203    0.5024528204         -0.3996
C721       C    0.4690476928    1.2869611901    0.5021548210         -0.3996
C722       C    0.4968519967    1.3060856152    0.5006821980          0.5992
C723       C    0.5262545395    1.2893704436    0.4994423098          0.5981
C724       C    0.5272397366    1.2554023608    0.5001435019          0.5985
C725       C    0.4951251499    1.3398141774    0.5002100373           0.599
H726       H    0.4443594209    1.2989986506    0.5032175782         -0.3987
H727       H    0.4461153885    1.2405909587    0.5044331049          -0.398
H728       H    0.5522399521    1.2450929789    0.4975304178          0.5963
F729       F    0.5556808475    1.3061391800    0.4970231279          0.5962
C730       C    0.5000000000    1.3707611152    0.5000000000           0.599
C679       C    0.5000000000    0.6292388848    0.0000000000          0.5977
C680       C    0.5130918615    0.6480754417   -0.0249712121          0.5924
C681       C    0.5117796541    0.6818540926   -0.0248629925          0.5937
C682       C    0.4976491210    0.7001692754    0.0002558359            -0.4
C683       C    0.4837718468    0.6807601426    0.0252217229         -0.3942
C684       C    0.4850647890    0.6465755691    0.0246797455         -0.3953
C685       C    0.4982720664    0.7352322318   -0.0008031946         -0.4001
H686       H    0.5241741712    0.6936127544   -0.0461870536          0.5882
H687       H    0.5256316118    0.6363057244   -0.0463671731          0.5867
H688       H    0.4729579851    0.6321243778    0.0445512919         -0.3897
C689       C    0.4731739567    0.6855074707    0.0849174766         -0.3984
H690       H    0.5005179059    0.6867528600    0.0884139166          0.5783
H691       H    0.4639278018    0.6601524761    0.0905187130         -0.3921
H692       H    0.4608859274    0.7035277723    0.1017679511         -0.3918
O693       O    0.4648632026    0.6945890421    0.0505299532          -0.384
C694       C    0.5052268550    0.7530214203   -0.0292383646         -0.3996
C695       C    0.5058618549    0.7869611901   -0.0304684629         -0.3996
C696       C    0.5001486499    0.8060856152   -0.0032176424          0.5992
C697       C    0.4938002889    0.7893704436    0.0255181396          0.5981
C698       C    0.4928697179    0.7554023608    0.0262903579          0.5985
C699       C    0.5010482205    0.8398141774   -0.0047654499           0.599
H700       H    0.5111714072    0.7989986506   -0.0546024405         -0.3987
H701       H    0.5095458994    0.7405909587   -0.0532172865          -0.398
H702       H    0.4889784895    0.7450929789    0.0511237493          0.5963
F703       F    0.4885856148    0.8061391800    0.0545795782          0.5962
C704       C    0.5000000000    0.8707611152    0.0000000000           0.599
C653       C    0.5000000000    1.3707611152    0.0000000000          0.5977
C654       C    0.5062215647    1.3519245583   -0.0275000074          0.5924
C655       C    0.5071504780    1.3181459074   -0.0265668837          0.5937
C656       C    0.5016240234    1.2998307246    0.0017189043            -0.4
C657       C    0.4960039001    1.3192398574    0.0297240550         -0.3942
C658       C    0.4953708679    1.3534244309    0.0284731716         -0.3953
C659       C    0.5018363213    1.2647677682    0.0005087241         -0.4001
H660       H    0.5115384630    1.3063872456   -0.0508379616          0.5882
H661       H    0.5105455876    1.3636942756   -0.0519199850          0.5867
H662       H    0.4917055194    1.3678756222    0.0514518199         -0.3897
C663       C    0.4653709337    1.3144925293    0.0820453667         -0.3984
H664       H    0.4422852887    1.3132471400    0.0669798550          0.5783
H665       H    0.4687792840    1.3398475239    0.0923044299         -0.3921
H666       H    0.4638021820    1.2964722277    0.1028413560         -0.3918
O667       O    0.4939925588    1.3054109579    0.0612517865          -0.384
C668       C    0.5149762122    1.2469785797   -0.0256498547         -0.3996
C669       C    0.5152902385    1.2130388099   -0.0269980958         -0.3996
C670       C    0.5019728802    1.1939143848   -0.0025461860          0.5992
C671       C    0.4881763818    1.2106295564    0.0234481112          0.5981
C672       C    0.4883842462    1.2445976392    0.0246393609          0.5985
C673       C    0.5022914475    1.1601858226   -0.0043078472           0.599
H674       H    0.5268942180    1.2010013494   -0.0488152423         -0.3987
H675       H    0.5272338082    1.2594090413   -0.0467067818          -0.398
H676       H    0.4752469557    1.2549070211    0.0460694935          0.5963
F677       F    0.4733055999    1.1938608200    0.0489553629          0.5962
C678       C    0.5000000000    1.1292388848    0.0000000000           0.599
C627       C    0.5000000000    1.0000000000   -0.3707611152          0.5977
C628       C    0.5162878340    0.9769855538   -0.3519245583          0.5924
C629       C    0.5167880974    0.9782034767   -0.3181459074          0.5937
C630       C    0.5008410641    1.0022101347   -0.2998307246            -0.4
C631       C    0.4849150932    1.0259216868   -0.3192398574         -0.3942
C632       C    0.4848099154    1.0245236966   -0.3534244309         -0.3953
C633       C    0.5015010408    1.0011737770   -0.2647677682         -0.4001
H634       H    0.5301446759    0.9574684472   -0.3063872456          0.5882
H635       H    0.5296424137    0.9560884802   -0.3636942756          0.5867
H636       H    0.4726161972    1.0443420289   -0.3678756222         -0.3897
C637       C    0.4365658893    1.0625038240   -0.3144925293         -0.3984
H638       H    0.4210187341    1.0397397598   -0.3132471400          0.5783
H639       H    0.4357812984    1.0732857370   -0.3398475239         -0.3921
H640       H    0.4271452878    1.0811099097   -0.2964722277         -0.3918
O641       O    0.4709719343    1.0542700848   -0.3054109579          -0.384
C642       C    0.5236645191    0.9820502782   -0.2469785797         -0.3996
C643       C    0.5244713762    0.9809254012   -0.2130388099         -0.3996
C644       C    0.5027982006    0.9984045713   -0.1939143848          0.5992
C645       C    0.4800912453    1.0171246416   -0.2106295564          0.5981
C646       C    0.4798265921    1.0183045747   -0.2445976392          0.5985
C647       C    0.5037677272    0.9968995951   -0.1601858226           0.599
H648       H    0.5435520757    0.9652229450   -0.2010013494         -0.3987
H649       H    0.5430574936    0.9673005195   -0.2594090413          -0.398
H650       H    0.4594780609    1.0330618192   -0.2549070211          0.5963
F651       F    0.4565787665    1.0349830678   -0.1938608200          0.5962
C652       C    0.5000000000    1.0000000000   -0.1292388848           0.599
C601       C    0.5000000000    1.0000000000    0.1292388848          0.5977
C602       C    0.5274949337    0.9937560515    0.1480754417          0.5924
C603       C    0.5270535369    0.9949965227    0.1818540926          0.5937
C604       C    0.4991493377    1.0022064582    0.2001692754            -0.4
C605       C    0.4714579599    1.0092108745    0.1807601426         -0.3942
C606       C    0.4723136385    1.0081003551    0.1465755691         -0.3953
C607       C    0.5003327807    1.0018762017    0.2352322318         -0.4001
H608       H    0.5508445147    0.9884904476    0.1936127544          0.5882
H609       H    0.5513926795    0.9871280632    0.1363057244          0.5867
H610       H    0.4500003623    1.0147011705    0.1321243778         -0.3897
C611       C    0.4110419003    1.0041316982    0.1855074707         -0.3984
H612       H    0.4146809287    0.9768063597    0.1867528600          0.5783
H613       H    0.4032551099    1.0116304397    0.1601524761         -0.3921
H614       H    0.3916019736    1.0116830824    0.2035277723         -0.3918
O615       O    0.4421443123    1.0209902381    0.1945890421          -0.384
C616       C    0.5296004332    1.0024528204    0.2530214203         -0.3996
C617       C    0.5309523072    1.0021548210    0.2869611901         -0.3996
C618       C    0.5031480033    1.0006821980    0.3060856152          0.5992
C619       C    0.4737454605    0.9994423098    0.2893704436          0.5981
C620       C    0.4727602634    1.0001435019    0.2554023608          0.5985
C621       C    0.5048748501    1.0002100373    0.3398141774           0.599
H622       H    0.5556405791    1.0032175782    0.2989986506         -0.3987
H623       H    0.5538846115    1.0044331049    0.2405909587          -0.398
H624       H    0.4477600479    0.9975304178    0.2450929789          0.5963
F625       F    0.4443191525    0.9970231279    0.3061391800          0.5962
C626       C    0.5000000000    1.0000000000    0.3707611152           0.599
C575       C    0.6292388848    0.5000000000    0.5000000000          0.5977
C576       C    0.6480754417    0.5148663258    0.4760427333          0.5924
C577       C    0.6818540926    0.5154393225    0.4772281761          0.5937
C578       C    0.7001692754    0.5009731734    0.5021552303            -0.4
C579       C    0.6807601426    0.4865102030    0.5267864451         -0.3942
C580       C    0.6465755691    0.4863206801    0.5253973734         -0.3953
C581       C    0.7352322318    0.5015692731    0.5010808599         -0.4001
H582       H    0.6936127544    0.5275175951    0.4557234099          0.5882
H583       H    0.6363057244    0.5269328045    0.4543763405          0.5867
H584       H    0.6321243778    0.4753477063    0.5459168008         -0.3897
C585       C    0.6855074707    0.4404616290    0.5662253486         -0.3984
H586       H    0.6867528600    0.4235663655    0.5444430916          0.5783
H587       H    0.6601524761    0.4403304644    0.5770349752         -0.3921
H588       H    0.7035277723    0.4321833916    0.5853670555         -0.3918
O589       O    0.6945890421    0.4743068095    0.5559261179          -0.384
C590       C    0.7530214203    0.5225357791    0.4806521155         -0.3996
C591       C    0.7869611901    0.5232731374    0.4794805057         -0.3996
C592       C    0.8060856152    0.5026966030    0.4982382817          0.5992
C593       C    0.7893704436    0.4811632189    0.5182972004          0.5981
C594       C    0.7554023608    0.4809704015    0.5194909780          0.5985
C595       C    0.8398141774    0.5035733483    0.4966774316           0.599
H596       H    0.7989986506    0.5413693793    0.4626529613         -0.3987
H597       H    0.7405909587    0.5410013348    0.4647566415          -0.398
H598       H    0.7450929789    0.4615514905    0.5354517073          0.5963
F599       F    0.8061391800    0.4587736812    0.5375447625          0.5962
C600       C    0.8707611152    0.5000000000    0.5000000000           0.599
C549       C    1.1292388848    0.5000000000    0.5000000000          0.5977
C550       C    1.1480754417    0.5148663258    0.4760427333          0.5924
C551       C    1.1818540926    0.5154393225    0.4772281761          0.5937
C552       C    1.2001692754    0.5009731734    0.5021552303            -0.4
C553       C    1.1807601426    0.4865102030    0.5267864451         -0.3942
C554       C    1.1465755691    0.4863206801    0.5253973734         -0.3953
C555       C    1.2352322318    0.5015692731    0.5010808599         -0.4001
H556       H    1.1936127544    0.5275175951    0.4557234099          0.5882
H557       H    1.1363057244    0.5269328045    0.4543763405          0.5867
H558       H    1.1321243778    0.4753477063    0.5459168008         -0.3897
C559       C    1.1855074707    0.4404616290    0.5662253486         -0.3984
H560       H    1.1867528600    0.4235663655    0.5444430916          0.5783
H561       H    1.1601524761    0.4403304644    0.5770349752         -0.3921
H562       H    1.2035277723    0.4321833916    0.5853670555         -0.3918
O563       O    1.1945890421    0.4743068095    0.5559261179          -0.384
C564       C    1.2530214203    0.5225357791    0.4806521155         -0.3996
C565       C    1.2869611901    0.5232731374    0.4794805057         -0.3996
C566       C    1.3060856152    0.5026966030    0.4982382817          0.5992
C567       C    1.2893704436    0.4811632189    0.5182972004          0.5981
C568       C    1.2554023608    0.4809704015    0.5194909780          0.5985
C569       C    1.3398141774    0.5035733483    0.4966774316           0.599
H570       H    1.2989986506    0.5413693793    0.4626529613         -0.3987
H571       H    1.2405909587    0.5410013348    0.4647566415          -0.398
H572       H    1.2450929789    0.4615514905    0.5354517073          0.5963
F573       F    1.3061391800    0.4587736812    0.5375447625          0.5962
C574       C    1.3707611152    0.5000000000    0.5000000000           0.599
C523       C    0.6292388848    0.5000000000    0.0000000000          0.5977
C524       C    0.6480754417    0.4956350204    0.0278550754          0.5924
C525       C    0.6818540926    0.4946456718    0.0269862894          0.5937
C526       C    0.7001692754    0.4982644532   -0.0016062258            -0.4
C527       C    0.6807601426    0.5019954965   -0.0299250105         -0.3942
C528       C    0.6465755691    0.5027109200   -0.0287193537         -0.3953
C529       C    0.7352322318    0.4981337190   -0.0003845404         -0.4001
H530       H    0.6936127544    0.4918938009    0.0514968349          0.5882
H531       H    0.6363057244    0.4929569447    0.0525099004          0.5867
H532       H    0.6321243778    0.5048283760   -0.0518919547         -0.3897
C533       C    0.6855074707    0.5290538984   -0.0841812652         -0.3984
H534       H    0.6867528600    0.5530971093   -0.0706964345          0.5783
H535       H    0.6601524761    0.5249658119   -0.0941889012         -0.3921
H536       H    0.7035277723    0.5292257156   -0.1050356325         -0.3918
O537       O    0.6945890421    0.5018898418   -0.0615166579          -0.384
C538       C    0.7530214203    0.4867760798    0.0265956747         -0.3996
C539       C    0.7869611901    0.4865530964    0.0279619269         -0.3996
C540       C    0.8060856152    0.4982021574    0.0026726543          0.5992
C541       C    0.7893704436    0.5102259360   -0.0241876435          0.5981
C542       C    0.7554023608    0.5099387205   -0.0253622884          0.5985
C543       C    0.8398141774    0.4980023439    0.0044517018           0.599
H544       H    0.7989986506    0.4764370247    0.0505075543         -0.3987
H545       H    0.7405909587    0.4759569230    0.0484265859          -0.398
H546       H    0.7450929789    0.5216105888   -0.0476245093          0.5963
F547       F    0.8061391800    0.5233542177   -0.0506339714          0.5962
C548       C    0.8707611152    0.5000000000    0.0000000000           0.599
C497       C    1.1292388848    0.5000000000    0.0000000000          0.5977
C498       C    1.1480754417    0.4837567268    0.0230459182          0.5924
C499       C    1.1818540926    0.4832541077    0.0218289655          0.5937
C500       C    1.2001692754    0.4991546612   -0.0022085032            -0.4
C501       C    1.1807601426    0.5150347231   -0.0259508259         -0.3942
C502       C    1.1465755691    0.5151426057   -0.0245530417         -0.3953
C503       C    1.2352322318    0.4984966909   -0.0011708705         -0.4001
H504       H    1.1936127544    0.4699376742    0.0425897997          0.5882
H505       H    1.1363057244    0.4704426054    0.0439687922          0.5867
H506       H    1.1321243778    0.5272979549   -0.0443949303         -0.3897
C507       C    1.1855074707    0.5633130544   -0.0626264446         -0.3984
H508       H    1.1867528600    0.5789042262   -0.0398925050          0.5783
H509       H    1.1601524761    0.5640767820   -0.0734098555         -0.3921
H510       H    1.2035277723    0.5726976376   -0.0812507232         -0.3918
O511       O    1.1945890421    0.5289230051   -0.0543261491          -0.384
C512       C    1.2530214203    0.4763702558    0.0179954763         -0.3996
C513       C    1.2869611901    0.4755655768    0.0191219124         -0.3996
C514       C    1.3060856152    0.4972048916    0.0016008399          0.5992
C515       C    1.2893704436    0.5198755833   -0.0171631307          0.5981
C516       C    1.2554023608    0.5201379529   -0.0183435736          0.5985
C517       C    1.3398141774    0.4962382788    0.0031076892           0.599
H518       H    1.2989986506    0.4565152954    0.0348612580         -0.3987
H519       H    1.2405909587    0.4570058567    0.0327827305          -0.398
H520       H    1.2450929789    0.5404578924   -0.0331401625          0.5963
F521       F    1.3061391800    0.5433534640   -0.0350670174          0.5962
C522       C    1.3707611152    0.5000000000    0.0000000000           0.599
C471       C    1.0000000000    0.5000000000   -0.1292388848          0.5977
C472       C    1.0274949337    0.5062439485   -0.1480754417          0.5924
C473       C    1.0270535369    0.5050034773   -0.1818540926          0.5937
C474       C    0.9991493377    0.4977935418   -0.2001692754            -0.4
C475       C    0.9714579599    0.4907891255   -0.1807601426         -0.3942
C476       C    0.9723136385    0.4918996449   -0.1465755691         -0.3953
C477       C    1.0003327807    0.4981237983   -0.2352322318         -0.4001
H478       H    1.0508445147    0.5115095524   -0.1936127544          0.5882
H479       H    1.0513926795    0.5128719368   -0.1363057244          0.5867
H480       H    0.9500003623    0.4852988295   -0.1321243778         -0.3897
C481       C    0.9110419003    0.4958683018   -0.1855074707         -0.3984
H482       H    0.9146809287    0.5231936403   -0.1867528600          0.5783
H483       H    0.9032551099    0.4883695603   -0.1601524761         -0.3921
H484       H    0.8916019736    0.4883169176   -0.2035277723         -0.3918
O485       O    0.9421443123    0.4790097619   -0.1945890421          -0.384
C486       C    1.0296004332    0.4975471796   -0.2530214203         -0.3996
C487       C    1.0309523072    0.4978451790   -0.2869611901         -0.3996
C488       C    1.0031480033    0.4993178020   -0.3060856152          0.5992
C489       C    0.9737454605    0.5005576902   -0.2893704436          0.5981
C490       C    0.9727602634    0.4998564981   -0.2554023608          0.5985
C491       C    1.0048748501    0.4997899627   -0.3398141774           0.599
H492       H    1.0556405791    0.4967824218   -0.2989986506         -0.3987
H493       H    1.0538846115    0.4955668951   -0.2405909587          -0.398
H494       H    0.9477600479    0.5024695822   -0.2450929789          0.5963
F495       F    0.9443191525    0.5029768721   -0.3061391800          0.5962
C496       C    1.0000000000    0.5000000000   -0.3707611152           0.599
C445       C    1.0000000000    0.5000000000    0.1292388848          0.5977
C446       C    0.9725050663    0.5062439485    0.1480754417          0.5924
C447       C    0.9729464631    0.5050034773    0.1818540926          0.5937
C448       C    1.0008506623    0.4977935418    0.2001692754            -0.4
C449       C    1.0285420401    0.4907891255    0.1807601426         -0.3942
C450       C    1.0276863615    0.4918996449    0.1465755691         -0.3953
C451       C    0.9996672193    0.4981237983    0.2352322318         -0.4001
H452       H    0.9491554853    0.5115095524    0.1936127544          0.5882
H453       H    0.9486073205    0.5128719368    0.1363057244          0.5867
H454       H    1.0499996377    0.4852988295    0.1321243778         -0.3897
C455       C    1.0889580997    0.4958683018    0.1855074707         -0.3984
H456       H    1.0853190713    0.5231936403    0.1867528600          0.5783
H457       H    1.0967448901    0.4883695603    0.1601524761         -0.3921
H458       H    1.1083980264    0.4883169176    0.2035277723         -0.3918
O459       O    1.0578556877    0.4790097619    0.1945890421          -0.384
C460       C    0.9703995668    0.4975471796    0.2530214203         -0.3996
C461       C    0.9690476928    0.4978451790    0.2869611901         -0.3996
C462       C    0.9968519967    0.4993178020    0.3060856152          0.5992
C463       C    1.0262545395    0.5005576902    0.2893704436          0.5981
C464       C    1.0272397366    0.4998564981    0.2554023608          0.5985
C465       C    0.9951251499    0.4997899627    0.3398141774           0.599
H466       H    0.9443594209    0.4967824218    0.2989986506         -0.3987
H467       H    0.9461153885    0.4955668951    0.2405909587          -0.398
H468       H    1.0522399521    0.5024695822    0.2450929789          0.5963
F469       F    1.0556808475    0.5029768721    0.3061391800          0.5962
C470       C    1.0000000000    0.5000000000    0.3707611152           0.599
C419       C    1.0000000000   -0.1292388848    0.5000000000          0.5977
C420       C    1.0274949337   -0.1480754417    0.4937560515          0.5924
C421       C    1.0270535369   -0.1818540926    0.4949965227          0.5937
C422       C    0.9991493377   -0.2001692754    0.5022064582            -0.4
C423       C    0.9714579599   -0.1807601426    0.5092108745         -0.3942
C424       C    0.9723136385   -0.1465755691    0.5081003551         -0.3953
C425       C    1.0003327807   -0.2352322318    0.5018762017         -0.4001
H426       H    1.0508445147   -0.1936127544    0.4884904476          0.5882
H427       H    1.0513926795   -0.1363057244    0.4871280632          0.5867
H428       H    0.9500003623   -0.1321243778    0.5147011705         -0.3897
C429       C    0.9110419003   -0.1855074707    0.5041316982         -0.3984
H430       H    0.9146809287   -0.1867528600    0.4768063597          0.5783
H431       H    0.9032551099   -0.1601524761    0.5116304397         -0.3921
H432       H    0.8916019736   -0.2035277723    0.5116830824         -0.3918
O433       O    0.9421443123   -0.1945890421    0.5209902381          -0.384
C434       C    1.0296004332   -0.2530214203    0.5024528204         -0.3996
C435       C    1.0309523072   -0.2869611901    0.5021548210         -0.3996
C436       C    1.0031480033   -0.3060856152    0.5006821980          0.5992
C437       C    0.9737454605   -0.2893704436    0.4994423098          0.5981
C438       C    0.9727602634   -0.2554023608    0.5001435019          0.5985
C439       C    1.0048748501   -0.3398141774    0.5002100373           0.599
H440       H    1.0556405791   -0.2989986506    0.5032175782         -0.3987
H441       H    1.0538846115   -0.2405909587    0.5044331049          -0.398
H442       H    0.9477600479   -0.2450929789    0.4975304178          0.5963
F443       F    0.9443191525   -0.3061391800    0.4970231279          0.5962
C444       C    1.0000000000   -0.3707611152    0.5000000000           0.599
C393       C    1.0000000000    0.1292388848    0.5000000000          0.5977
C394       C    1.0018629727    0.1480754417    0.4718666105          0.5924
C395       C    1.0007068895    0.1818540926    0.4724967465          0.5937
C396       C    0.9979539041    0.2001692754    0.5011855697            -0.4
C397       C    0.9953705896    0.1807601426    0.5296320236         -0.3942
C398       C    0.9963334722    0.1465755691    0.5286130554         -0.3953
C399       C    0.9980948354    0.2352322318    0.4999650186         -0.4001
H400       H    1.0034085668    0.1936127544    0.4479806176          0.5882
H401       H    1.0046683472    0.1363057244    0.4472259458          0.5867
H402       H    0.9933069062    0.1321243778    0.5516845303         -0.3897
C403       C    1.0098445546    0.1855074707    0.5885081870         -0.3984
H404       H    1.0362633789    0.1867528600    0.5806365688          0.5783
H405       H    1.0036571860    0.1601524761    0.5973728190         -0.3921
H406       H    1.0054293501    0.2035277723    0.6088905354         -0.3918
O407       O    0.9883251404    0.1945890421    0.5604282083          -0.384
C408       C    0.9929438275    0.2530214203    0.4711484419         -0.3996
C409       C    0.9930265335    0.2869611901    0.4697665857         -0.3996
C410       C    0.9988334302    0.3060856152    0.4969975953          0.5992
C411       C    1.0046606463    0.2893704436    0.5258435725          0.5981
C412       C    1.0041223193    0.2554023608    0.5269263871          0.5985
C413       C    0.9990294531    0.3398141774    0.4952181261           0.599
H414       H    0.9881122271    0.2989986506    0.4455490340         -0.3987
H415       H    0.9871865610    0.2405909587    0.4474736299          -0.398
H416       H    1.0106166711    0.2450929789    0.5512093520          0.5963
F417       F    1.0116563377    0.3061391800    0.5545284177          0.5962
C418       C    1.0000000000    0.3707611152    0.5000000000           0.599
C367       C    0.6292388848   -0.0000000000    0.5000000000          0.5977
C368       C    0.6480754417   -0.0277754497    0.4951541084          0.5924
C369       C    0.6818540926   -0.0268896895    0.4941799274          0.5937
C370       C    0.7001692754    0.0016359902    0.4982924813            -0.4
C371       C    0.6807601426    0.0298860396    0.5025125481         -0.3942
C372       C    0.6465755691    0.0286681946    0.5032070210         -0.3953
C373       C    0.7352322318    0.0004167476    0.4981406460         -0.4001
H374       H    0.6936127544   -0.0513489970    0.4910047244          0.5882
H375       H    0.6363057244   -0.0523802908    0.4920501951          0.5867
H376       H    0.6321243778    0.0518007254    0.5057247733         -0.3897
C377       C    0.6855074707    0.0836663943    0.5305048995         -0.3984
H378       H    0.6867528600    0.0697679149    0.5543113886          0.5783
H379       H    0.6601524761    0.0937432103    0.5265904381         -0.3921
H380       H    0.7035277723    0.1045146744    0.5310372256         -0.3918
O381       O    0.6945890421    0.0614747921    0.5029530722          -0.384
C382       C    0.7530214203   -0.0263630820    0.4863182646         -0.3996
C383       C    0.7869611901   -0.0277252750    0.4860716944         -0.3996
C384       C    0.8060856152   -0.0026411734    0.4981562207          0.5992
C385       C    0.7893704436    0.0240072405    0.5106425687          0.5981
C386       C    0.7554023608    0.0251866753    0.5103757037          0.5985
C387       C    0.8398141774   -0.0044165006    0.4979256805           0.599
H388       H    0.7989986506   -0.0500926442    0.4755673611         -0.3987
H389       H    0.7405909587   -0.0480036867    0.4751233073          -0.398
H390       H    0.7450929789    0.0472437833    0.5224307015          0.5963
F391       F    0.8061391800    0.0502226515    0.5242260981          0.5962
C392       C    0.8707611152   -0.0000000000    0.5000000000           0.599
C341       C    1.1292388848   -0.0000000000    0.5000000000          0.5977
C342       C    1.1480754417    0.0266854273    0.5091019910          0.5924
C343       C    1.1818540926    0.0256590812    0.5099267415          0.5937
C344       C    1.2001692754   -0.0018813923    0.5014326364            -0.4
C345       C    1.1807601426   -0.0291328796    0.4928751430         -0.3942
C346       C    1.1465755691   -0.0278219332    0.4923782943         -0.3953
C347       C    1.2352322318   -0.0007005397    0.5017720384         -0.4001
H348       H    1.1936127544    0.0493281686    0.5168631625          0.5882
H349       H    1.1363057244    0.0505093564    0.5159905965          0.5867
H350       H    1.1321243778   -0.0502824871    0.4862974576         -0.3897
C351       C    1.1855074707   -0.0779116816    0.4568678277         -0.3984
H352       H    1.1867528600   -0.0604835869    0.4355095000          0.5783
H353       H    1.1601524761   -0.0884742729    0.4591693263         -0.3921
H354       H    1.2035277723   -0.0984241541    0.4531031725         -0.3918
O355       O    1.1945890421   -0.0602696902    0.4875326371          -0.384
C356       C    1.2530214203    0.0239175534    0.5176111503         -0.3996
C357       C    1.2869611901    0.0252249038    0.5180663444         -0.3996
C358       C    1.3060856152    0.0023226759    0.5022317025          0.5992
C359       C    1.2893704436   -0.0220624494    0.4857571004          0.5981
C360       C    1.2554023608   -0.0232690228    0.4858374997          0.5985
C361       C    1.3398141774    0.0040406350    0.5027352418           0.599
H362       H    1.2989986506    0.0456888659    0.5319179320         -0.3987
H363       H    1.2405909587    0.0435562856    0.5320320740          -0.398
H364       H    1.2450929789   -0.0431855939    0.4705022728          0.5963
F365       F    1.3061391800   -0.0458493810    0.4682659046          0.5962
C366       C    1.3707611152   -0.0000000000    0.5000000000           0.599
C315       C    0.0000000000   -0.3707611152    0.0000000000          0.5977
C316       C   -0.0049593882   -0.3519245583   -0.0277554092          0.5924
C317       C   -0.0059299403   -0.3181459074   -0.0268656743          0.5937
C318       C   -0.0017008170   -0.2998307246    0.0016429563            -0.4
C319       C    0.0026346915   -0.3192398574    0.0298755194         -0.3942
C320       C    0.0033241805   -0.3534244309    0.0286548458         -0.3953
C321       C   -0.0018576350   -0.2647677682    0.0004243446         -0.4001
H322       H   -0.0092050985   -0.3063872456   -0.0513117982          0.5882
H323       H   -0.0081638520   -0.3636942756   -0.0523473570          0.5867
H324       H    0.0059364700   -0.3678756222    0.0517768916         -0.3897
C325       C    0.0308466457   -0.3144925293    0.0835410012         -0.3984
H326       H    0.0545961234   -0.3132471400    0.0695453247          0.5783
H327       H    0.0269734077   -0.3398475239    0.0936337341         -0.3921
H328       H    0.0314641884   -0.2964722277    0.1043869311         -0.3918
O329       O    0.0032043365   -0.3054109579    0.0614622073          -0.384
C330       C   -0.0137893848   -0.2469785797   -0.0263069353         -0.3996
C331       C   -0.0140415211   -0.2130388099   -0.0276681090         -0.3996
C332       C   -0.0018545602   -0.1939143848   -0.0026336146          0.5992
C333       C    0.0107406136   -0.2106295564    0.0239635366          0.5981
C334       C    0.0104785719   -0.2445976392    0.0251440524          0.5985
C335       C   -0.0020923554   -0.1601858226   -0.0044079845           0.599
H336       H   -0.0246371972   -0.2010013494   -0.0499923530         -0.3987
H337       H   -0.0250727083   -0.2594090413   -0.0479015978          -0.398
H338       H    0.0226236313   -0.2549070211    0.0471516992          0.5963
F339       F    0.0244311895   -0.1938608200    0.0501232035          0.5962
C340       C   -0.0000000000   -0.1292388848    0.0000000000           0.599
C289       C   -0.0000000000    0.1292388848    0.0000000000          0.5977
C290       C   -0.0268996259    0.1480754417    0.0084479819          0.5924
C291       C   -0.0258937148    0.1818540926    0.0092975363          0.5937
C292       C    0.0018458662    0.2001692754    0.0014781278            -0.4
C293       C    0.0292980942    0.1807601426   -0.0064117031         -0.3942
C294       C    0.0279996647    0.1465755691   -0.0069403994         -0.3953
C295       C    0.0006570818    0.2352322318    0.0017886083         -0.4001
H296       H   -0.0497250453    0.1936127544    0.0156542116          0.5882
H297       H   -0.0508845850    0.1363057244    0.0147530768          0.5867
H298       H    0.0506019399    0.1321243778   -0.0124712413         -0.3897
C299       C    0.0789411782    0.1855074707   -0.0412177729         -0.3984
H300       H    0.0620395569    0.1867528600   -0.0629950970          0.5783
H301       H    0.0894444516    0.1601524761   -0.0386591640         -0.3921
H302       H    0.0995394224    0.2035277723   -0.0444806691         -0.3918
O303       O    0.0605560216    0.1945890421   -0.0109926772          -0.384
C304       C   -0.0243402552    0.2530214203    0.0170221606         -0.3996
C305       C   -0.0256583259    0.2869611901    0.0174453113         -0.3996
C306       C   -0.0023764520    0.3060856152    0.0021743493          0.5992
C307       C    0.0224034967    0.2893704436   -0.0137001899          0.5981
C308       C    0.0236077484    0.2554023608   -0.0135903663          0.5985
C309       C   -0.0041061890    0.3398141774    0.0026358093           0.599
H310       H   -0.0464542608    0.2989986506    0.0307933191         -0.3987
H311       H   -0.0443251016    0.2405909587    0.0309594759          -0.398
H312       H    0.0438926658    0.2450929789   -0.0284349313          0.5963
F313       F    0.0466102413    0.3061391800   -0.0306056197          0.5962
C314       C    0.0000000000    0.3707611152    0.0000000000           0.599
C263       C   -0.3707611152   -0.0000000000    0.0000000000          0.5977
C264       C   -0.3519245583    0.0015011523   -0.0281550140          0.5924
C265       C   -0.3181459074    0.0025739528   -0.0273916668          0.5937
C266       C   -0.2998307246    0.0018903220    0.0014208331            -0.4
C267       C   -0.3192398574    0.0010670958    0.0299724802         -0.3942
C268       C   -0.3534244309    0.0002324329    0.0288460802         -0.3953
C269       C   -0.2647677682    0.0018957692    0.0001921847         -0.4001
H270       H   -0.3063872456    0.0028115323   -0.0520550647          0.5882
H271       H   -0.3636942756    0.0016506059   -0.0529544121          0.5867
H272       H   -0.3678756222    0.0004894968    0.0521138040         -0.3897
C273       C   -0.3144925293   -0.0203163574    0.0867055941         -0.3984
H274       H   -0.3132471400   -0.0456095604    0.0757433619          0.5783
H275       H   -0.3398475239   -0.0152288669    0.0962440777         -0.3921
H276       H   -0.2964722277   -0.0183602483    0.1074687295         -0.3918
O277       O   -0.3054109579    0.0043943730    0.0613885998          -0.384
C278       C   -0.2469785797    0.0104423451   -0.0278057441         -0.3996
C279       C   -0.2130388099    0.0105248155   -0.0291876143         -0.3996
C280       C   -0.1939143848    0.0015158708   -0.0028420864          0.5992
C281       C   -0.2106295564   -0.0077056014    0.0251044931          0.5981
C282       C   -0.2445976392   -0.0073000765    0.0262437178          0.5985
C283       C   -0.1601858226    0.0015331893   -0.0046322359           0.599
H284       H   -0.2010013494    0.0182886021   -0.0526474490         -0.3987
H285       H   -0.2594090413    0.0189784474   -0.0506263006          -0.398
H286       H   -0.2549070211   -0.0166404520    0.0495803065          0.5963
F287       F   -0.1938608200   -0.0180680394    0.0527519147          0.5962
C288       C   -0.1292388848   -0.0000000000    0.0000000000           0.599
C237       C    0.3707611152   -0.0000000000    0.0000000000          0.5977
C238       C    0.3519245583    0.0231459239   -0.0161004497          0.5924
C239       C    0.3181459074    0.0219321026   -0.0166105846          0.5937
C240       C    0.2998307246   -0.0022032335   -0.0008589798            -0.4
C241       C    0.3192398574   -0.0260433025    0.0148739591         -0.3942
C242       C    0.3534244309   -0.0246462122    0.0149904833         -0.3953
C243       C    0.2647677682   -0.0011615518   -0.0015105209         -0.4001
H244       H    0.3063872456    0.0427748869   -0.0297983812          0.5882
H245       H    0.3636942756    0.0441507307   -0.0292849321          0.5867
H246       H    0.3678756222   -0.0445628885    0.0270229004         -0.3897
C247       C    0.3144925293   -0.0630167670    0.0629245700         -0.3984
H248       H    0.3132471400   -0.0403796758    0.0786560275          0.5783
H249       H    0.3398475239   -0.0738046944    0.0636215998         -0.3921
H250       H    0.2964722277   -0.0816987225    0.0721938036         -0.3918
O251       O    0.3054109579   -0.0545039665    0.0285865062          -0.384
C252       C    0.2469785797    0.0181412555   -0.0235180107         -0.3996
C253       C    0.2130388099    0.0192726461   -0.0243157086         -0.3996
C254       C    0.1939143848    0.0016180939   -0.0027851555          0.5992
C255       C    0.2106295564   -0.0172857105    0.0197690687          0.5981
C256       C    0.2445976392   -0.0184677534    0.0200241335          0.5985
C257       C    0.1601858226    0.0031308918   -0.0037424317           0.599
H258       H    0.2010013494    0.0351294953   -0.0432682956         -0.3987
H259       H    0.2594090413    0.0330479739   -0.0427905971          -0.398
H260       H    0.2549070211   -0.0333897153    0.0402521844          0.5963
F261       F    0.1938608200   -0.0353344391    0.0431357852          0.5962
C262       C    0.1292388848   -0.0000000000    0.0000000000           0.599
C211       C    0.0000000000    0.0000000000   -0.3707611152          0.5977
C212       C   -0.0275038484    0.0062045626   -0.3519245583          0.5924
C213       C   -0.0270606754    0.0049647250   -0.3181459074          0.5937
C214       C    0.0008538216   -0.0022052376   -0.2998307246            -0.4
C215       C    0.0285552030   -0.0091699859   -0.3192398574         -0.3942
C216       C    0.0276979348   -0.0080606932   -0.3534244309         -0.3953
C217       C   -0.0003300932   -0.0018766764   -0.2647677682         -0.4001
H218       H   -0.0508609470    0.0114367189   -0.3063872456          0.5882
H219       H   -0.0514110625    0.0127983168   -0.3636942756          0.5867
H220       H    0.0500206420   -0.0146295438   -0.3678756222         -0.3897
C221       C    0.0889639260   -0.0040042843   -0.3144925293         -0.3984
H222       H    0.0852857648    0.0233158141   -0.3132471400          0.5783
H223       H    0.0967614484   -0.0114918656   -0.3398475239         -0.3921
H224       H    0.1084146482   -0.0115278181   -0.2964722277         -0.3918
O225       O    0.0578856915   -0.0209073532   -0.3054109579          -0.384
C226       C   -0.0295968898   -0.0024952129   -0.2469785797         -0.3996
C227       C   -0.0309491892   -0.0021991501   -0.2130388099         -0.3996
C228       C   -0.0031470230   -0.0006867060   -0.1939143848          0.5992
C229       C    0.0262537139    0.0005952925   -0.2106295564          0.5981
C230       C    0.0272399141   -0.0001044878   -0.2445976392          0.5985
C231       C   -0.0048745442   -0.0002170191   -0.1601858226           0.599
H232       H   -0.0556359136   -0.0032972657   -0.2010013494         -0.3987
H233       H   -0.0538782070   -0.0045102762   -0.2594090413          -0.398
H234       H    0.0522363615    0.0025443999   -0.2549070211          0.5963
F235       F    0.0556765268    0.0030566175   -0.1938608200          0.5962
C236       C   -0.0000000000    0.0000000000   -0.1292388848           0.599
C185       C   -0.0000000000    0.0000000000    0.1292388848          0.5977
C186       C    0.0009209634    0.0281799592    0.1480754417          0.5924
C187       C   -0.0002133971    0.0275115086    0.1818540926          0.5937
C188       C   -0.0020052979   -0.0012533413    0.2001692754            -0.4
C189       C   -0.0036357290   -0.0297702828    0.1807601426         -0.3942
C190       C   -0.0027074662   -0.0287196795    0.1465755691         -0.3953
C191       C   -0.0019052687   -0.0000287595    0.2352322318         -0.4001
H192       H    0.0016667869    0.0521042829    0.1936127544          0.5882
H193       H    0.0029006212    0.0529006679    0.1363057244          0.5867
H194       H   -0.0049606759   -0.0518794745    0.1321243778         -0.3897
C195       C    0.0127993468   -0.0881294000    0.1855074707         -0.3984
H196       H    0.0389401109   -0.0793785654    0.1867528600          0.5783
H197       H    0.0069119320   -0.0971960188    0.1601524761         -0.3921
H198       H    0.0090683334   -0.1086480182    0.2035277723         -0.3918
O199       O   -0.0096472079   -0.0607848836    0.1945890421          -0.384
C200       C   -0.0080172119    0.0285994106    0.2530214203         -0.3996
C201       C   -0.0079807705    0.0299832599    0.2869611901         -0.3996
C202       C   -0.0012663374    0.0029617071    0.3060856152          0.5992
C203       C    0.0055224190   -0.0256732303    0.2893704436          0.5981
C204       C    0.0050206096   -0.0267734443    0.2554023608          0.5985
C205       C   -0.0011299414    0.0047467369    0.3398141774           0.599
H206       H   -0.0137023228    0.0540228951    0.2989986506         -0.3987
H207       H   -0.0145630998    0.0520684156    0.2405909587          -0.398
H208       H    0.0123235111   -0.0508256088    0.2450929789          0.5963
F209       F    0.0134736077   -0.0541080442    0.3061391800          0.5962
C210       C   -0.0000000000    0.0000000000    0.3707611152           0.599
loop_
_geom_bond_atom_site_label_1
_geom_bond_atom_site_label_2
_geom_bond_distance
_geom_bond_site_symmetry_2
_ccdc_geom_bond_type
Zn1          O5 1.942       .   S
Zn1          O6 1.922       .   S
Zn1         O10 1.922       .   S
Zn1         O17 1.922       .   S
Zn2          O5 1.942       .   S
Zn2          O7 1.922       .   S
Zn2          O9 1.922       .   S
Zn2         O13 1.922       .   S
Zn3          O5 1.942       .   S
Zn3          O8 1.922       .   S
Zn3         O11 1.922       .   S
Zn3         O14 1.922       .   S
Zn4          O5 1.942       .   S
Zn4         O12 1.922       .   S
Zn4         O15 1.922       .   S
Zn4         O16 1.922       .   S
O6          C18 1.304       .   A
O7          C19 1.304       .   A
O8          C20 1.304       .   A
O9          C18 1.304       .   A
O10         C20 1.304       .   A
O11         C19 1.304       .   A
O12         C21 1.304       .   A
O13         C22 1.304       .   A
O14         C21 1.304       .   A
O15         C22 1.304       .   A
O16         C23 1.304       .   A
O17         C23 1.304       .   A
C18        C185 1.540       .   S
C19        C262 1.540       .   S
C20        C340 1.540       .   S
C21        C236 1.540       .   S
C22        C289 1.540       .   S
C23        C288 1.540       .   S
Zn24        O28 1.942       .   S
Zn24        O29 1.922       .   S
Zn24        O33 1.922       .   S
Zn24        O40 1.922       .   S
Zn25        O28 1.942       .   S
Zn25        O30 1.922       .   S
Zn25        O32 1.922       .   S
Zn25        O36 1.922       .   S
Zn26        O28 1.942       .   S
Zn26        O31 1.922       .   S
Zn26        O34 1.922       .   S
Zn26        O37 1.922       .   S
Zn27        O28 1.942       .   S
Zn27        O35 1.922       .   S
Zn27        O38 1.922       .   S
Zn27        O39 1.922       .   S
O29         C41 1.304       .   A
O30         C42 1.304       .   A
O31         C43 1.304       .   A
O32         C41 1.304       .   A
O33         C43 1.304       .   A
O34         C42 1.304       .   A
O35         C44 1.304       .   A
O36         C45 1.304       .   A
O37         C44 1.304       .   A
O38         C45 1.304       .   A
O39         C46 1.304       .   A
O40         C46 1.304       .   A
C41        C210 1.540   1_655   S
C42        C341 1.540       .   S
C43        C393 1.540       .   S
C44        C211 1.540   1_656   S
C45        C419 1.540       .   S
C46        C392 1.540       .   S
Zn47        O51 1.942       .   S
Zn47        O52 1.922       .   S
Zn47        O56 1.922       .   S
Zn47        O63 1.922       .   S
Zn48        O51 1.942       .   S
Zn48        O53 1.922       .   S
Zn48        O55 1.922       .   S
Zn48        O59 1.922       .   S
Zn49        O51 1.942       .   S
Zn49        O54 1.922       .   S
Zn49        O57 1.922       .   S
Zn49        O60 1.922       .   S
Zn50        O51 1.942       .   S
Zn50        O58 1.922       .   S
Zn50        O61 1.922       .   S
Zn50        O62 1.922       .   S
O52         C64 1.304       .   A
O53         C65 1.304       .   A
O54         C66 1.304       .   A
O55         C64 1.304       .   A
O56         C66 1.304       .   A
O57         C65 1.304       .   A
O58         C67 1.304       .   A
O59         C68 1.304       .   A
O60         C67 1.304       .   A
O61         C68 1.304       .   A
O62         C69 1.304       .   A
O63         C69 1.304       .   A
C64        C314 1.540   1_655   S
C65        C445 1.540       .   S
C66        C497 1.540       .   S
C67        C315 1.540   1_665   S
C68        C548 1.540       .   S
C69        C471 1.540       .   S
Zn70        O74 1.942       .   S
Zn70        O75 1.922       .   S
Zn70        O79 1.922       .   S
Zn70        O86 1.922       .   S
Zn71        O74 1.942       .   S
Zn71        O76 1.922       .   S
Zn71        O78 1.922       .   S
Zn71        O82 1.922       .   S
Zn72        O74 1.942       .   S
Zn72        O77 1.922       .   S
Zn72        O80 1.922       .   S
Zn72        O83 1.922       .   S
Zn73        O74 1.942       .   S
Zn73        O81 1.922       .   S
Zn73        O84 1.922       .   S
Zn73        O85 1.922       .   S
O75         C87 1.304       .   A
O76         C88 1.304       .   A
O77         C89 1.304       .   A
O78         C87 1.304       .   A
O79         C89 1.304       .   A
O80         C88 1.304       .   A
O81         C90 1.304       .   A
O82         C91 1.304       .   A
O83         C90 1.304       .   A
O84         C91 1.304       .   A
O85         C92 1.304       .   A
O86         C92 1.304       .   A
C87        C418 1.540       .   S
C88        C470 1.540       .   S
C89        C600 1.540       .   S
C90        C444 1.540   1_565   S
C91        C549 1.540       .   S
C92        C496 1.540   1_556   S
Zn93        O97 1.942       .   S
Zn93        O98 1.922       .   S
Zn93       O102 1.922       .   S
Zn93       O109 1.922       .   S
Zn94        O97 1.942       .   S
Zn94        O99 1.922       .   S
Zn94       O101 1.922       .   S
Zn94       O105 1.922       .   S
Zn95        O97 1.942       .   S
Zn95       O100 1.922       .   S
Zn95       O103 1.922       .   S
Zn95       O106 1.922       .   S
Zn96        O97 1.942       .   S
Zn96       O104 1.922       .   S
Zn96       O107 1.922       .   S
Zn96       O108 1.922       .   S
O98        C110 1.304       .   A
O99        C111 1.304       .   A
O100       C112 1.304       .   A
O101       C110 1.304       .   A
O102       C112 1.304       .   A
O103       C111 1.304       .   A
O104       C113 1.304       .   A
O105       C114 1.304       .   A
O106       C113 1.304       .   A
O107       C114 1.304       .   A
O108       C115 1.304       .   A
O109       C115 1.304       .   A
C110       C237 1.540   1_565   S
C111       C601 1.540       .   S
C112       C704 1.540       .   S
C113       C263 1.540   1_665   S
C114       C678 1.540       .   S
C115       C652 1.540       .   S
Zn116      O120 1.942       .   S
Zn116      O121 1.922       .   S
Zn116      O125 1.922       .   S
Zn116      O132 1.922       .   S
Zn117      O120 1.942       .   S
Zn117      O122 1.922       .   S
Zn117      O124 1.922       .   S
Zn117      O128 1.922       .   S
Zn118      O120 1.942       .   S
Zn118      O123 1.922       .   S
Zn118      O126 1.922       .   S
Zn118      O129 1.922       .   S
Zn119      O120 1.942       .   S
Zn119      O127 1.922       .   S
Zn119      O130 1.922       .   S
Zn119      O131 1.922       .   S
O121       C133 1.304       .   A
O122       C134 1.304       .   A
O123       C135 1.304       .   A
O124       C133 1.304       .   A
O125       C135 1.304       .   A
O126       C134 1.304       .   A
O127       C136 1.304       .   A
O128       C137 1.304       .   A
O129       C136 1.304       .   A
O130       C137 1.304       .   A
O131       C138 1.304       .   A
O132       C138 1.304       .   A
C133       C366 1.540   1_465   S
C134       C626 1.540       .   S
C135       C705 1.540       .   S
C136       C367 1.540   1_565   S
C137       C756 1.540       .   S
C138       C627 1.540   1_556   S
Zn139      O143 1.942       .   S
Zn139      O144 1.922       .   S
Zn139      O148 1.922       .   S
Zn139      O155 1.922       .   S
Zn140      O143 1.942       .   S
Zn140      O145 1.922       .   S
Zn140      O147 1.922       .   S
Zn140      O151 1.922       .   S
Zn141      O143 1.942       .   S
Zn141      O146 1.922       .   S
Zn141      O149 1.922       .   S
Zn141      O152 1.922       .   S
Zn142      O143 1.942       .   S
Zn142      O150 1.922       .   S
Zn142      O153 1.922       .   S
Zn142      O154 1.922       .   S
O144       C156 1.304       .   A
O145       C157 1.304       .   A
O146       C158 1.304       .   A
O147       C156 1.304       .   A
O148       C158 1.304       .   A
O149       C157 1.304       .   A
O150       C159 1.304       .   A
O151       C160 1.304       .   A
O152       C159 1.304       .   A
O153       C160 1.304       .   A
O154       C161 1.304       .   A
O155       C161 1.304       .   A
C156       C757 1.540       .   S
C157       C522 1.540   1_455   S
C158       C679 1.540       .   S
C159       C783 1.540       .   S
C160       C653 1.540   1_545   S
C161       C523 1.540       .   S
Zn162      O166 1.942       .   S
Zn162      O167 1.922       .   S
Zn162      O171 1.922       .   S
Zn162      O178 1.922       .   S
Zn163      O166 1.942       .   S
Zn163      O168 1.922       .   S
Zn163      O170 1.922       .   S
Zn163      O174 1.922       .   S
Zn164      O166 1.942       .   S
Zn164      O169 1.922       .   S
Zn164      O172 1.922       .   S
Zn164      O175 1.922       .   S
Zn165      O166 1.942       .   S
Zn165      O173 1.922       .   S
Zn165      O176 1.922       .   S
Zn165      O177 1.922       .   S
O167       C179 1.304       .   A
O168       C180 1.304       .   A
O169       C181 1.304       .   A
O170       C179 1.304       .   A
O171       C181 1.304       .   A
O172       C180 1.304       .   A
O173       C182 1.304       .   A
O174       C183 1.304       .   A
O175       C182 1.304       .   A
O176       C183 1.304       .   A
O177       C184 1.304       .   A
O178       C184 1.304       .   A
C179       C574 1.540   1_455   S
C180       C730 1.540   1_545   S
C181       C782 1.540       .   S
C182       C575 1.540       .   S
C183       C808 1.540   1_556   S
C184       C731 1.540       .   S
C783       C784 0.029       .   A
C783       C788 0.029       .   A
C784       C785 0.029       .   A
C784       H791 0.023       .   A
C785       C786 0.029       .   A
C785       H790 0.023       .   A
C786       C787 0.029       .   A
C786       C789 0.030       .   A
C787       C788 0.029       .   A
C787       O797 0.029       .   A
C788       H792 0.023       .   A
C789       C798 0.029       .   A
C789       C802 0.029       .   A
C793       H794 0.024       .   A
C793       H795 0.023       .   A
C793       H796 0.023       .   A
C793       O797 0.031       .   A
C798       C799 0.029       .   A
C798       H805 0.023       .   A
C799       C800 0.029       .   A
C799       H804 0.023       .   A
C800       C801 0.029       .   A
C800       C803 0.029       .   A
C801       C802 0.029       .   A
C801       F807 0.029       .   A
C802       H806 0.023       .   A
C803       C808 0.027       .   A
C757       C758 0.029       .   A
C757       C762 0.029       .   A
C758       C759 0.029       .   A
C758       H765 0.023       .   A
C759       C760 0.029       .   A
C759       H764 0.023       .   A
C760       C761 0.029       .   A
C760       C763 0.030       .   A
C761       C762 0.029       .   A
C761       O771 0.029       .   A
C762       H766 0.023       .   A
C763       C772 0.029       .   A
C763       C776 0.029       .   A
C767       H768 0.024       .   A
C767       H769 0.023       .   A
C767       H770 0.023       .   A
C767       O771 0.031       .   A
C772       C773 0.029       .   A
C772       H779 0.023       .   A
C773       C774 0.029       .   A
C773       H778 0.023       .   A
C774       C775 0.029       .   A
C774       C777 0.029       .   A
C775       C776 0.029       .   A
C775       F781 0.029       .   A
C776       H780 0.023       .   A
C777       C782 0.027       .   A
C731       C732 0.029       .   A
C731       C736 0.029       .   A
C732       C733 0.029       .   A
C732       H739 0.023       .   A
C733       C734 0.029       .   A
C733       H738 0.023       .   A
C734       C735 0.029       .   A
C734       C737 0.030       .   A
C735       C736 0.029       .   A
C735       O745 0.029       .   A
C736       H740 0.023       .   A
C737       C746 0.029       .   A
C737       C750 0.029       .   A
C741       H742 0.024       .   A
C741       H743 0.023       .   A
C741       H744 0.023       .   A
C741       O745 0.031       .   A
C746       C747 0.029       .   A
C746       H753 0.023       .   A
C747       C748 0.029       .   A
C747       H752 0.023       .   A
C748       C749 0.029       .   A
C748       C751 0.029       .   A
C749       C750 0.029       .   A
C749       F755 0.029       .   A
C750       H754 0.023       .   A
C751       C756 0.027       .   A
C705       C706 0.029       .   A
C705       C710 0.029       .   A
C706       C707 0.029       .   A
C706       H713 0.023       .   A
C707       C708 0.029       .   A
C707       H712 0.023       .   A
C708       C709 0.029       .   A
C708       C711 0.030       .   A
C709       C710 0.029       .   A
C709       O719 0.029       .   A
C710       H714 0.023       .   A
C711       C720 0.029       .   A
C711       C724 0.029       .   A
C715       H716 0.024       .   A
C715       H717 0.023       .   A
C715       H718 0.023       .   A
C715       O719 0.031       .   A
C720       C721 0.029       .   A
C720       H727 0.023       .   A
C721       C722 0.029       .   A
C721       H726 0.023       .   A
C722       C723 0.029       .   A
C722       C725 0.029       .   A
C723       C724 0.029       .   A
C723       F729 0.029       .   A
C724       H728 0.023       .   A
C725       C730 0.027       .   A
C679       C680 0.029       .   A
C679       C684 0.029       .   A
C680       C681 0.029       .   A
C680       H687 0.023       .   A
C681       C682 0.029       .   A
C681       H686 0.023       .   A
C682       C683 0.029       .   A
C682       C685 0.030       .   A
C683       C684 0.029       .   A
C683       O693 0.029       .   A
C684       H688 0.023       .   A
C685       C694 0.029       .   A
C685       C698 0.029       .   A
C689       H690 0.024       .   A
C689       H691 0.023       .   A
C689       H692 0.023       .   A
C689       O693 0.031       .   A
C694       C695 0.029       .   A
C694       H701 0.023       .   A
C695       C696 0.029       .   A
C695       H700 0.023       .   A
C696       C697 0.029       .   A
C696       C699 0.029       .   A
C697       C698 0.029       .   A
C697       F703 0.029       .   A
C698       H702 0.023       .   A
C699       C704 0.027       .   A
C653       C654 0.029       .   A
C653       C658 0.029       .   A
C654       C655 0.029       .   A
C654       H661 0.023       .   A
C655       C656 0.029       .   A
C655       H660 0.023       .   A
C656       C657 0.029       .   A
C656       C659 0.030       .   A
C657       C658 0.029       .   A
C657       O667 0.029       .   A
C658       H662 0.023       .   A
C659       C668 0.029       .   A
C659       C672 0.029       .   A
C663       H664 0.024       .   A
C663       H665 0.023       .   A
C663       H666 0.023       .   A
C663       O667 0.031       .   A
C668       C669 0.029       .   A
C668       H675 0.023       .   A
C669       C670 0.029       .   A
C669       H674 0.023       .   A
C670       C671 0.029       .   A
C670       C673 0.029       .   A
C671       C672 0.029       .   A
C671       F677 0.029       .   A
C672       H676 0.023       .   A
C673       C678 0.027       .   A
C627       C628 0.029       .   A
C627       C632 0.029       .   A
C628       C629 0.029       .   A
C628       H635 0.023       .   A
C629       C630 0.029       .   A
C629       H634 0.023       .   A
C630       C631 0.029       .   A
C630       C633 0.030       .   A
C631       C632 0.029       .   A
C631       O641 0.029       .   A
C632       H636 0.023       .   A
C633       C642 0.029       .   A
C633       C646 0.029       .   A
C637       H638 0.024       .   A
C637       H639 0.023       .   A
C637       H640 0.023       .   A
C637       O641 0.031       .   A
C642       C643 0.029       .   A
C642       H649 0.023       .   A
C643       C644 0.029       .   A
C643       H648 0.023       .   A
C644       C645 0.029       .   A
C644       C647 0.029       .   A
C645       C646 0.029       .   A
C645       F651 0.029       .   A
C646       H650 0.023       .   A
C647       C652 0.027       .   A
C601       C602 0.029       .   A
C601       C606 0.029       .   A
C602       C603 0.029       .   A
C602       H609 0.023       .   A
C603       C604 0.029       .   A
C603       H608 0.023       .   A
C604       C605 0.029       .   A
C604       C607 0.030       .   A
C605       C606 0.029       .   A
C605       O615 0.029       .   A
C606       H610 0.023       .   A
C607       C616 0.029       .   A
C607       C620 0.029       .   A
C611       H612 0.024       .   A
C611       H613 0.023       .   A
C611       H614 0.023       .   A
C611       O615 0.031       .   A
C616       C617 0.029       .   A
C616       H623 0.023       .   A
C617       C618 0.029       .   A
C617       H622 0.023       .   A
C618       C619 0.029       .   A
C618       C621 0.029       .   A
C619       C620 0.029       .   A
C619       F625 0.029       .   A
C620       H624 0.023       .   A
C621       C626 0.027       .   A
C575       C576 0.029       .   A
C575       C580 0.029       .   A
C576       C577 0.029       .   A
C576       H583 0.023       .   A
C577       C578 0.029       .   A
C577       H582 0.023       .   A
C578       C579 0.029       .   A
C578       C581 0.030       .   A
C579       C580 0.029       .   A
C579       O589 0.029       .   A
C580       H584 0.023       .   A
C581       C590 0.029       .   A
C581       C594 0.029       .   A
C585       H586 0.024       .   A
C585       H587 0.023       .   A
C585       H588 0.023       .   A
C585       O589 0.031       .   A
C590       C591 0.029       .   A
C590       H597 0.023       .   A
C591       C592 0.029       .   A
C591       H596 0.023       .   A
C592       C593 0.029       .   A
C592       C595 0.029       .   A
C593       C594 0.029       .   A
C593       F599 0.029       .   A
C594       H598 0.023       .   A
C595       C600 0.027       .   A
C549       C550 0.029       .   A
C549       C554 0.029       .   A
C550       C551 0.029       .   A
C550       H557 0.023       .   A
C551       C552 0.029       .   A
C551       H556 0.023       .   A
C552       C553 0.029       .   A
C552       C555 0.030       .   A
C553       C554 0.029       .   A
C553       O563 0.029       .   A
C554       H558 0.023       .   A
C555       C564 0.029       .   A
C555       C568 0.029       .   A
C559       H560 0.024       .   A
C559       H561 0.023       .   A
C559       H562 0.023       .   A
C559       O563 0.031       .   A
C564       C565 0.029       .   A
C564       H571 0.023       .   A
C565       C566 0.029       .   A
C565       H570 0.023       .   A
C566       C567 0.029       .   A
C566       C569 0.029       .   A
C567       C568 0.029       .   A
C567       F573 0.029       .   A
C568       H572 0.023       .   A
C569       C574 0.027       .   A
C523       C524 0.029       .   A
C523       C528 0.029       .   A
C524       C525 0.029       .   A
C524       H531 0.023       .   A
C525       C526 0.029       .   A
C525       H530 0.023       .   A
C526       C527 0.029       .   A
C526       C529 0.030       .   A
C527       C528 0.029       .   A
C527       O537 0.029       .   A
C528       H532 0.023       .   A
C529       C538 0.029       .   A
C529       C542 0.029       .   A
C533       H534 0.024       .   A
C533       H535 0.023       .   A
C533       H536 0.023       .   A
C533       O537 0.031       .   A
C538       C539 0.029       .   A
C538       H545 0.023       .   A
C539       C540 0.029       .   A
C539       H544 0.023       .   A
C540       C541 0.029       .   A
C540       C543 0.029       .   A
C541       C542 0.029       .   A
C541       F547 0.029       .   A
C542       H546 0.023       .   A
C543       C548 0.027       .   A
C497       C498 0.029       .   A
C497       C502 0.029       .   A
C498       C499 0.029       .   A
C498       H505 0.023       .   A
C499       C500 0.029       .   A
C499       H504 0.023       .   A
C500       C501 0.029       .   A
C500       C503 0.030       .   A
C501       C502 0.029       .   A
C501       O511 0.029       .   A
C502       H506 0.023       .   A
C503       C512 0.029       .   A
C503       C516 0.029       .   A
C507       H508 0.024       .   A
C507       H509 0.023       .   A
C507       H510 0.023       .   A
C507       O511 0.031       .   A
C512       C513 0.029       .   A
C512       H519 0.023       .   A
C513       C514 0.029       .   A
C513       H518 0.023       .   A
C514       C515 0.029       .   A
C514       C517 0.029       .   A
C515       C516 0.029       .   A
C515       F521 0.029       .   A
C516       H520 0.023       .   A
C517       C522 0.027       .   A
C471       C472 0.029       .   A
C471       C476 0.029       .   A
C472       C473 0.029       .   A
C472       H479 0.023       .   A
C473       C474 0.029       .   A
C473       H478 0.023       .   A
C474       C475 0.029       .   A
C474       C477 0.030       .   A
C475       C476 0.029       .   A
C475       O485 0.029       .   A
C476       H480 0.023       .   A
C477       C486 0.029       .   A
C477       C490 0.029       .   A
C481       H482 0.024       .   A
C481       H483 0.023       .   A
C481       H484 0.023       .   A
C481       O485 0.031       .   A
C486       C487 0.029       .   A
C486       H493 0.023       .   A
C487       C488 0.029       .   A
C487       H492 0.023       .   A
C488       C489 0.029       .   A
C488       C491 0.029       .   A
C489       C490 0.029       .   A
C489       F495 0.029       .   A
C490       H494 0.023       .   A
C491       C496 0.027       .   A
C445       C446 0.029       .   A
C445       C450 0.029       .   A
C446       C447 0.029       .   A
C446       H453 0.023       .   A
C447       C448 0.029       .   A
C447       H452 0.023       .   A
C448       C449 0.029       .   A
C448       C451 0.030       .   A
C449       C450 0.029       .   A
C449       O459 0.029       .   A
C450       H454 0.023       .   A
C451       C460 0.029       .   A
C451       C464 0.029       .   A
C455       H456 0.024       .   A
C455       H457 0.023       .   A
C455       H458 0.023       .   A
C455       O459 0.031       .   A
C460       C461 0.029       .   A
C460       H467 0.023       .   A
C461       C462 0.029       .   A
C461       H466 0.023       .   A
C462       C463 0.029       .   A
C462       C465 0.029       .   A
C463       C464 0.029       .   A
C463       F469 0.029       .   A
C464       H468 0.023       .   A
C465       C470 0.027       .   A
C419       C420 0.029       .   A
C419       C424 0.029       .   A
C420       C421 0.029       .   A
C420       H427 0.023       .   A
C421       C422 0.029       .   A
C421       H426 0.023       .   A
C422       C423 0.029       .   A
C422       C425 0.030       .   A
C423       C424 0.029       .   A
C423       O433 0.029       .   A
C424       H428 0.023       .   A
C425       C434 0.029       .   A
C425       C438 0.029       .   A
C429       H430 0.024       .   A
C429       H431 0.023       .   A
C429       H432 0.023       .   A
C429       O433 0.031       .   A
C434       C435 0.029       .   A
C434       H441 0.023       .   A
C435       C436 0.029       .   A
C435       H440 0.023       .   A
C436       C437 0.029       .   A
C436       C439 0.029       .   A
C437       C438 0.029       .   A
C437       F443 0.029       .   A
C438       H442 0.023       .   A
C439       C444 0.027       .   A
C393       C394 0.029       .   A
C393       C398 0.029       .   A
C394       C395 0.029       .   A
C394       H401 0.023       .   A
C395       C396 0.029       .   A
C395       H400 0.023       .   A
C396       C397 0.029       .   A
C396       C399 0.030       .   A
C397       C398 0.029       .   A
C397       O407 0.029       .   A
C398       H402 0.023       .   A
C399       C408 0.029       .   A
C399       C412 0.029       .   A
C403       H404 0.024       .   A
C403       H405 0.023       .   A
C403       H406 0.023       .   A
C403       O407 0.031       .   A
C408       C409 0.029       .   A
C408       H415 0.023       .   A
C409       C410 0.029       .   A
C409       H414 0.023       .   A
C410       C411 0.029       .   A
C410       C413 0.029       .   A
C411       C412 0.029       .   A
C411       F417 0.029       .   A
C412       H416 0.023       .   A
C413       C418 0.027       .   A
C367       C368 0.029       .   A
C367       C372 0.029       .   A
C368       C369 0.029       .   A
C368       H375 0.023       .   A
C369       C370 0.029       .   A
C369       H374 0.023       .   A
C370       C371 0.029       .   A
C370       C373 0.030       .   A
C371       C372 0.029       .   A
C371       O381 0.029       .   A
C372       H376 0.023       .   A
C373       C382 0.029       .   A
C373       C386 0.029       .   A
C377       H378 0.024       .   A
C377       H379 0.023       .   A
C377       H380 0.023       .   A
C377       O381 0.031       .   A
C382       C383 0.029       .   A
C382       H389 0.023       .   A
C383       C384 0.029       .   A
C383       H388 0.023       .   A
C384       C385 0.029       .   A
C384       C387 0.029       .   A
C385       C386 0.029       .   A
C385       F391 0.029       .   A
C386       H390 0.023       .   A
C387       C392 0.027       .   A
C341       C342 0.029       .   A
C341       C346 0.029       .   A
C342       C343 0.029       .   A
C342       H349 0.023       .   A
C343       C344 0.029       .   A
C343       H348 0.023       .   A
C344       C345 0.029       .   A
C344       C347 0.030       .   A
C345       C346 0.029       .   A
C345       O355 0.029       .   A
C346       H350 0.023       .   A
C347       C356 0.029       .   A
C347       C360 0.029       .   A
C351       H352 0.024       .   A
C351       H353 0.023       .   A
C351       H354 0.023       .   A
C351       O355 0.031       .   A
C356       C357 0.029       .   A
C356       H363 0.023       .   A
C357       C358 0.029       .   A
C357       H362 0.023       .   A
C358       C359 0.029       .   A
C358       C361 0.029       .   A
C359       C360 0.029       .   A
C359       F365 0.029       .   A
C360       H364 0.023       .   A
C361       C366 0.027       .   A
C315       C316 0.029       .   A
C315       C320 0.029       .   A
C316       C317 0.029       .   A
C316       H323 0.023       .   A
C317       C318 0.029       .   A
C317       H322 0.023       .   A
C318       C319 0.029       .   A
C318       C321 0.030       .   A
C319       C320 0.029       .   A
C319       O329 0.029       .   A
C320       H324 0.023       .   A
C321       C330 0.029       .   A
C321       C334 0.029       .   A
C325       H326 0.024       .   A
C325       H327 0.023       .   A
C325       H328 0.023       .   A
C325       O329 0.031       .   A
C330       C331 0.029       .   A
C330       H337 0.023       .   A
C331       C332 0.029       .   A
C331       H336 0.023       .   A
C332       C333 0.029       .   A
C332       C335 0.029       .   A
C333       C334 0.029       .   A
C333       F339 0.029       .   A
C334       H338 0.023       .   A
C335       C340 0.027       .   A
C289       C290 0.029       .   A
C289       C294 0.029       .   A
C290       C291 0.029       .   A
C290       H297 0.023       .   A
C291       C292 0.029       .   A
C291       H296 0.023       .   A
C292       C293 0.029       .   A
C292       C295 0.030       .   A
C293       C294 0.029       .   A
C293       O303 0.029       .   A
C294       H298 0.023       .   A
C295       C304 0.029       .   A
C295       C308 0.029       .   A
C299       H300 0.024       .   A
C299       H301 0.023       .   A
C299       H302 0.023       .   A
C299       O303 0.031       .   A
C304       C305 0.029       .   A
C304       H311 0.023       .   A
C305       C306 0.029       .   A
C305       H310 0.023       .   A
C306       C307 0.029       .   A
C306       C309 0.029       .   A
C307       C308 0.029       .   A
C307       F313 0.029       .   A
C308       H312 0.023       .   A
C309       C314 0.027       .   A
C263       C264 0.029       .   A
C263       C268 0.029       .   A
C264       C265 0.029       .   A
C264       H271 0.023       .   A
C265       C266 0.029       .   A
C265       H270 0.023       .   A
C266       C267 0.029       .   A
C266       C269 0.030       .   A
C267       C268 0.029       .   A
C267       O277 0.029       .   A
C268       H272 0.023       .   A
C269       C278 0.029       .   A
C269       C282 0.029       .   A
C273       H274 0.024       .   A
C273       H275 0.023       .   A
C273       H276 0.023       .   A
C273       O277 0.031       .   A
C278       C279 0.029       .   A
C278       H285 0.023       .   A
C279       C280 0.029       .   A
C279       H284 0.023       .   A
C280       C281 0.029       .   A
C280       C283 0.029       .   A
C281       C282 0.029       .   A
C281       F287 0.029       .   A
C282       H286 0.023       .   A
C283       C288 0.027       .   A
C237       C238 0.029       .   A
C237       C242 0.029       .   A
C238       C239 0.029       .   A
C238       H245 0.023       .   A
C239       C240 0.029       .   A
C239       H244 0.023       .   A
C240       C241 0.029       .   A
C240       C243 0.030       .   A
C241       C242 0.029       .   A
C241       O251 0.029       .   A
C242       H246 0.023       .   A
C243       C252 0.029       .   A
C243       C256 0.029       .   A
C247       H248 0.024       .   A
C247       H249 0.023       .   A
C247       H250 0.023       .   A
C247       O251 0.031       .   A
C252       C253 0.029       .   A
C252       H259 0.023       .   A
C253       C254 0.029       .   A
C253       H258 0.023       .   A
C254       C255 0.029       .   A
C254       C257 0.029       .   A
C255       C256 0.029       .   A
C255       F261 0.029       .   A
C256       H260 0.023       .   A
C257       C262 0.027       .   A
C211       C212 0.029       .   A
C211       C216 0.029       .   A
C212       C213 0.029       .   A
C212       H219 0.023       .   A
C213       C214 0.029       .   A
C213       H218 0.023       .   A
C214       C215 0.029       .   A
C214       C217 0.030       .   A
C215       C216 0.029       .   A
C215       O225 0.029       .   A
C216       H220 0.023       .   A
C217       C226 0.029       .   A
C217       C230 0.029       .   A
C221       H222 0.024       .   A
C221       H223 0.023       .   A
C221       H224 0.023       .   A
C221       O225 0.031       .   A
C226       C227 0.029       .   A
C226       H233 0.023       .   A
C227       C228 0.029       .   A
C227       H232 0.023       .   A
C228       C229 0.029       .   A
C228       C231 0.029       .   A
C229       C230 0.029       .   A
C229       F235 0.029       .   A
C230       H234 0.023       .   A
C231       C236 0.027       .   A
C185       C186 0.029       .   A
C185       C190 0.029       .   A
C186       C187 0.029       .   A
C186       H193 0.023       .   A
C187       C188 0.029       .   A
C187       H192 0.023       .   A
C188       C189 0.029       .   A
C188       C191 0.030       .   A
C189       C190 0.029       .   A
C189       O199 0.029       .   A
C190       H194 0.023       .   A
C191       C200 0.029       .   A
C191       C204 0.029       .   A
C195       H196 0.024       .   A
C195       H197 0.023       .   A
C195       H198 0.023       .   A
C195       O199 0.031       .   A
C200       C201 0.029       .   A
C200       H207 0.023       .   A
C201       C202 0.029       .   A
C201       H206 0.023       .   A
C202       C203 0.029       .   A
C202       C205 0.029       .   A
C203       C204 0.029       .   A
C203       F209 0.029       .   A
C204       H208 0.023       .   A
C205       C210 0.027       .   A
