data_pcu_v1-6c_Zn_1_Ch_1-86_fer_tobacco
_audit_creation_date              2021-04-07
_audit_creation_method            'tobacco_3.0'
_symmetry_space_group_name_H-M    'P1'
_symmetry_Int_Tables_number       1
_symmetry_cell_setting            triclinic
loop_
_symmetry_equiv_pos_as_xyz
  x,y,z
_cell_length_a                    39.65781470896191
_cell_length_b                    39.65781470896191
_cell_length_c                    39.65781470896191
_cell_angle_alpha                 90.0
_cell_angle_beta                  90.0
_cell_angle_gamma                 90.0
loop_
_atom_site_label
_atom_site_type_symbol
_atom_site_fract_x
_atom_site_fract_y
_atom_site_fract_z
_atom_site_charge
Zn1       Zn   -0.0282718553   -0.0282718553    0.0282718553          1.4972
Zn2       Zn    0.0282718553    0.0282718553    0.0282718553          1.4936
Zn3       Zn    0.0282718553   -0.0282718553   -0.0282718553          1.4911
Zn4       Zn   -0.0282718553    0.0282718553   -0.0282718553          1.4948
O5         O    0.0000000000    0.0000000000    0.0000000000         -2.2603
O6         O   -0.0207777460   -0.0207777460    0.0755614000         -1.1666
O7         O    0.0755614000    0.0207777460    0.0207777460         -1.1648
O8         O    0.0207777460   -0.0755614000   -0.0207777460         -1.1599
O9         O    0.0207777460    0.0207777460    0.0755614000         -1.1667
O10        O   -0.0207777460   -0.0755614000    0.0207777460         -1.1627
O11        O    0.0755614000   -0.0207777460   -0.0207777460         -1.1686
O12        O   -0.0207777460    0.0207777460   -0.0755614000         -1.1625
O13        O    0.0207777460    0.0755614000    0.0207777460           -1.17
O14        O    0.0207777460   -0.0207777460   -0.0755614000         -1.1639
O15        O   -0.0207777460    0.0755614000   -0.0207777460         -1.1686
O16        O   -0.0755614000    0.0207777460   -0.0207777460         -1.1677
O17        O   -0.0755614000   -0.0207777460    0.0207777460         -1.1656
C18        C   -0.0000000000   -0.0000000000    0.0903428499          0.3523
C19        C    0.0903428499   -0.0000000000   -0.0000000000          0.3572
C20        C   -0.0000000000   -0.0903428499    0.0000000000          0.3468
C21        C    0.0000000000    0.0000000000   -0.0903428499          0.3506
C22        C    0.0000000000    0.0903428499   -0.0000000000          0.3619
C23        C   -0.0903428499    0.0000000000    0.0000000000          0.3524
Zn24      Zn    1.0282718553    0.0282718553    0.4717281447          1.4972
Zn25      Zn    0.9717281447   -0.0282718553    0.4717281447          1.4936
Zn26      Zn    1.0282718553   -0.0282718553    0.5282718553          1.4911
Zn27      Zn    0.9717281447    0.0282718553    0.5282718553          1.4948
O28        O    1.0000000000    0.0000000000    0.5000000000         -2.2603
O29        O    1.0207777460    0.0207777460    0.4244386000         -1.1666
O30        O    0.9792222540   -0.0755614000    0.4792222540         -1.1648
O31        O    1.0755614000   -0.0207777460    0.5207777460         -1.1599
O32        O    0.9792222540   -0.0207777460    0.4244386000         -1.1667
O33        O    1.0755614000    0.0207777460    0.4792222540         -1.1627
O34        O    1.0207777460   -0.0755614000    0.5207777460         -1.1686
O35        O    0.9792222540    0.0207777460    0.5755614000         -1.1625
O36        O    0.9244386000   -0.0207777460    0.4792222540           -1.17
O37        O    1.0207777460   -0.0207777460    0.5755614000         -1.1639
O38        O    0.9244386000    0.0207777460    0.5207777460         -1.1686
O39        O    0.9792222540    0.0755614000    0.5207777460         -1.1677
O40        O    1.0207777460    0.0755614000    0.4792222540         -1.1656
C41        C    1.0000000000    0.0000000000    0.4096571501          0.3523
C42        C    1.0000000000   -0.0903428499    0.5000000000          0.3572
C43        C    1.0903428499    0.0000000000    0.5000000000          0.3468
C44        C    1.0000000000    0.0000000000    0.5903428499          0.3506
C45        C    0.9096571501    0.0000000000    0.5000000000          0.3619
C46        C    1.0000000000    0.0903428499    0.5000000000          0.3524
Zn47      Zn    1.0282718553    0.4717281447   -0.0282718553          1.4972
Zn48      Zn    0.9717281447    0.4717281447    0.0282718553          1.4936
Zn49      Zn    1.0282718553    0.5282718553    0.0282718553          1.4911
Zn50      Zn    0.9717281447    0.5282718553   -0.0282718553          1.4948
O51        O    1.0000000000    0.5000000000    0.0000000000         -2.2603
O52        O    1.0207777460    0.4244386000   -0.0207777460         -1.1666
O53        O    0.9792222540    0.4792222540    0.0755614000         -1.1648
O54        O    1.0755614000    0.5207777460    0.0207777460         -1.1599
O55        O    0.9792222540    0.4244386000    0.0207777460         -1.1667
O56        O    1.0755614000    0.4792222540   -0.0207777460         -1.1627
O57        O    1.0207777460    0.5207777460    0.0755614000         -1.1686
O58        O    0.9792222540    0.5755614000   -0.0207777460         -1.1625
O59        O    0.9244386000    0.4792222540    0.0207777460           -1.17
O60        O    1.0207777460    0.5755614000    0.0207777460         -1.1639
O61        O    0.9244386000    0.5207777460   -0.0207777460         -1.1686
O62        O    0.9792222540    0.5207777460   -0.0755614000         -1.1677
O63        O    1.0207777460    0.4792222540   -0.0755614000         -1.1656
C64        C    1.0000000000    0.4096571501    0.0000000000          0.3523
C65        C    1.0000000000    0.5000000000    0.0903428499          0.3572
C66        C    1.0903428499    0.5000000000    0.0000000000          0.3468
C67        C    1.0000000000    0.5903428499    0.0000000000          0.3506
C68        C    0.9096571501    0.5000000000    0.0000000000          0.3619
C69        C    1.0000000000    0.5000000000   -0.0903428499          0.3524
Zn70      Zn    0.9717281447    0.4717281447    0.5282718553          1.4972
Zn71      Zn    1.0282718553    0.4717281447    0.4717281447          1.4936
Zn72      Zn    0.9717281447    0.5282718553    0.4717281447          1.4911
Zn73      Zn    1.0282718553    0.5282718553    0.5282718553          1.4948
O74        O    1.0000000000    0.5000000000    0.5000000000         -2.2603
O75        O    0.9792222540    0.4244386000    0.5207777460         -1.1666
O76        O    1.0207777460    0.4792222540    0.4244386000         -1.1648
O77        O    0.9244386000    0.5207777460    0.4792222540         -1.1599
O78        O    1.0207777460    0.4244386000    0.4792222540         -1.1667
O79        O    0.9244386000    0.4792222540    0.5207777460         -1.1627
O80        O    0.9792222540    0.5207777460    0.4244386000         -1.1686
O81        O    1.0207777460    0.5755614000    0.5207777460         -1.1625
O82        O    1.0755614000    0.4792222540    0.4792222540           -1.17
O83        O    0.9792222540    0.5755614000    0.4792222540         -1.1639
O84        O    1.0755614000    0.5207777460    0.5207777460         -1.1686
O85        O    1.0207777460    0.5207777460    0.5755614000         -1.1677
O86        O    0.9792222540    0.4792222540    0.5755614000         -1.1656
C87        C    1.0000000000    0.4096571501    0.5000000000          0.3523
C88        C    1.0000000000    0.5000000000    0.4096571501          0.3572
C89        C    0.9096571501    0.5000000000    0.5000000000          0.3468
C90        C    1.0000000000    0.5903428499    0.5000000000          0.3506
C91        C    1.0903428499    0.5000000000    0.5000000000          0.3619
C92        C    1.0000000000    0.5000000000    0.5903428499          0.3524
Zn93      Zn    0.4717281447    0.9717281447   -0.0282718553          1.4972
Zn94      Zn    0.4717281447    1.0282718553    0.0282718553          1.4936
Zn95      Zn    0.5282718553    0.9717281447    0.0282718553          1.4911
Zn96      Zn    0.5282718553    1.0282718553   -0.0282718553          1.4948
O97        O    0.5000000000    1.0000000000    0.0000000000         -2.2603
O98        O    0.4244386000    0.9792222540   -0.0207777460         -1.1666
O99        O    0.4792222540    1.0207777460    0.0755614000         -1.1648
O100       O    0.5207777460    0.9244386000    0.0207777460         -1.1599
O101       O    0.4244386000    1.0207777460    0.0207777460         -1.1667
O102       O    0.4792222540    0.9244386000   -0.0207777460         -1.1627
O103       O    0.5207777460    0.9792222540    0.0755614000         -1.1686
O104       O    0.5755614000    1.0207777460   -0.0207777460         -1.1625
O105       O    0.4792222540    1.0755614000    0.0207777460           -1.17
O106       O    0.5755614000    0.9792222540    0.0207777460         -1.1639
O107       O    0.5207777460    1.0755614000   -0.0207777460         -1.1686
O108       O    0.5207777460    1.0207777460   -0.0755614000         -1.1677
O109       O    0.4792222540    0.9792222540   -0.0755614000         -1.1656
C110       C    0.4096571501    1.0000000000    0.0000000000          0.3523
C111       C    0.5000000000    1.0000000000    0.0903428499          0.3572
C112       C    0.5000000000    0.9096571501    0.0000000000          0.3468
C113       C    0.5903428499    1.0000000000    0.0000000000          0.3506
C114       C    0.5000000000    1.0903428499    0.0000000000          0.3619
C115       C    0.5000000000    1.0000000000   -0.0903428499          0.3524
Zn116     Zn    0.4717281447    1.0282718553    0.5282718553          1.4972
Zn117     Zn    0.4717281447    0.9717281447    0.4717281447          1.4936
Zn118     Zn    0.5282718553    1.0282718553    0.4717281447          1.4911
Zn119     Zn    0.5282718553    0.9717281447    0.5282718553          1.4948
O120       O    0.5000000000    1.0000000000    0.5000000000         -2.2603
O121       O    0.4244386000    1.0207777460    0.5207777460         -1.1666
O122       O    0.4792222540    0.9792222540    0.4244386000         -1.1648
O123       O    0.5207777460    1.0755614000    0.4792222540         -1.1599
O124       O    0.4244386000    0.9792222540    0.4792222540         -1.1667
O125       O    0.4792222540    1.0755614000    0.5207777460         -1.1627
O126       O    0.5207777460    1.0207777460    0.4244386000         -1.1686
O127       O    0.5755614000    0.9792222540    0.5207777460         -1.1625
O128       O    0.4792222540    0.9244386000    0.4792222540           -1.17
O129       O    0.5755614000    1.0207777460    0.4792222540         -1.1639
O130       O    0.5207777460    0.9244386000    0.5207777460         -1.1686
O131       O    0.5207777460    0.9792222540    0.5755614000         -1.1677
O132       O    0.4792222540    1.0207777460    0.5755614000         -1.1656
C133       C    0.4096571501    1.0000000000    0.5000000000          0.3523
C134       C    0.5000000000    1.0000000000    0.4096571501          0.3572
C135       C    0.5000000000    1.0903428499    0.5000000000          0.3468
C136       C    0.5903428499    1.0000000000    0.5000000000          0.3506
C137       C    0.5000000000    0.9096571501    0.5000000000          0.3619
C138       C    0.5000000000    1.0000000000    0.5903428499          0.3524
Zn139     Zn    0.4717281447    0.5282718553   -0.0282718553          1.4972
Zn140     Zn    0.5282718553    0.4717281447   -0.0282718553          1.4936
Zn141     Zn    0.5282718553    0.5282718553    0.0282718553          1.4911
Zn142     Zn    0.4717281447    0.4717281447    0.0282718553          1.4948
O143       O    0.5000000000    0.5000000000    0.0000000000         -2.2603
O144       O    0.4792222540    0.5207777460   -0.0755614000         -1.1666
O145       O    0.5755614000    0.4792222540   -0.0207777460         -1.1648
O146       O    0.5207777460    0.5755614000    0.0207777460         -1.1599
O147       O    0.5207777460    0.4792222540   -0.0755614000         -1.1667
O148       O    0.4792222540    0.5755614000   -0.0207777460         -1.1627
O149       O    0.5755614000    0.5207777460    0.0207777460         -1.1686
O150       O    0.4792222540    0.4792222540    0.0755614000         -1.1625
O151       O    0.5207777460    0.4244386000   -0.0207777460           -1.17
O152       O    0.5207777460    0.5207777460    0.0755614000         -1.1639
O153       O    0.4792222540    0.4244386000    0.0207777460         -1.1686
O154       O    0.4244386000    0.4792222540    0.0207777460         -1.1677
O155       O    0.4244386000    0.5207777460   -0.0207777460         -1.1656
C156       C    0.5000000000    0.5000000000   -0.0903428499          0.3523
C157       C    0.5903428499    0.5000000000    0.0000000000          0.3572
C158       C    0.5000000000    0.5903428499    0.0000000000          0.3468
C159       C    0.5000000000    0.5000000000    0.0903428499          0.3506
C160       C    0.5000000000    0.4096571501    0.0000000000          0.3619
C161       C    0.4096571501    0.5000000000    0.0000000000          0.3524
Zn162     Zn    0.4717281447    0.5282718553    0.4717281447          1.4972
Zn163     Zn    0.4717281447    0.4717281447    0.5282718553          1.4936
Zn164     Zn    0.5282718553    0.4717281447    0.4717281447          1.4911
Zn165     Zn    0.5282718553    0.5282718553    0.5282718553          1.4948
O166       O    0.5000000000    0.5000000000    0.5000000000         -2.2603
O167       O    0.4244386000    0.5207777460    0.4792222540         -1.1666
O168       O    0.4792222540    0.4244386000    0.5207777460         -1.1648
O169       O    0.5207777460    0.4792222540    0.4244386000         -1.1599
O170       O    0.4244386000    0.4792222540    0.5207777460         -1.1667
O171       O    0.4792222540    0.5207777460    0.4244386000         -1.1627
O172       O    0.5207777460    0.4244386000    0.4792222540         -1.1686
O173       O    0.5755614000    0.5207777460    0.5207777460         -1.1625
O174       O    0.4792222540    0.4792222540    0.5755614000           -1.17
O175       O    0.5755614000    0.4792222540    0.4792222540         -1.1639
O176       O    0.5207777460    0.5207777460    0.5755614000         -1.1686
O177       O    0.5207777460    0.5755614000    0.5207777460         -1.1677
O178       O    0.4792222540    0.5755614000    0.4792222540         -1.1656
C179       C    0.4096571501    0.5000000000    0.5000000000          0.3523
C180       C    0.5000000000    0.4096571501    0.5000000000          0.3572
C181       C    0.5000000000    0.5000000000    0.4096571501          0.3468
C182       C    0.5903428499    0.5000000000    0.5000000000          0.3506
C183       C    0.5000000000    0.5000000000    0.5903428499          0.3619
C184       C    0.5000000000    0.5903428499    0.5000000000          0.3524
C691       C    0.5000000000    0.5000000000   -0.1291750450          0.5762
C692       C    0.4935781064    0.4693810985   -0.1429481913         -0.4182
C693       C    0.4925779556    0.4643297186   -0.1762522246         -0.4172
C694       C    0.4975266652    0.4896046773   -0.1978271235         -0.4215
C695       C    0.5044287600    0.5197792294   -0.1845879618          0.5725
C696       C    0.5061346792    0.5253066217   -0.1512241088          0.5709
N697       N    0.4963471890    0.4852544616   -0.2301860621         -0.4204
H698       H    0.4876581943    0.4389988410   -0.1857883146          -0.413
H699       H    0.4891801011    0.4472053537   -0.1274036482         -0.4144
C700       C    0.4961518376    0.5788988512   -0.1230110602         -0.4205
H701       H    0.5094119220    0.5405300104   -0.2018213811          0.5683
H702       H    0.5102256405    0.5858934544   -0.1003500905          0.5673
H703       H    0.4724472851    0.5665965034   -0.1162425313         -0.3999
H704       H    0.4912687203    0.6015491208   -0.1378446419         -0.4162
O705       O    0.5174896101    0.5565709503   -0.1420564362          0.5611
N706       N    0.4954699425    0.4823833396   -0.2623946861         -0.4195
N707       N    0.4995003743    0.5152244731   -0.2798778776          0.5771
N708       N    0.5000875024    0.5206988104   -0.3113749172          0.5767
C709       C    0.5000448678    0.5209683713   -0.3441489277          0.5768
C710       C    0.5000000000    0.5000000000   -0.3708249550          0.5769
H711       H    0.4999445178    0.4731809662   -0.3649815942          0.5769
H712       H    0.5001052033    0.5475866691   -0.3362793993          0.5767
C669       C    0.5000000000    0.5000000000    0.1291750450          0.5762
C670       C    0.5306189015    0.5064218936    0.1429481913         -0.4182
C671       C    0.5356702814    0.5074220444    0.1762522246         -0.4172
C672       C    0.5103953227    0.5024733348    0.1978271235         -0.4215
C673       C    0.4802207706    0.4955712400    0.1845879618          0.5725
C674       C    0.4746933783    0.4938653208    0.1512241088          0.5709
N675       N    0.5147455384    0.5036528110    0.2301860621         -0.4204
H676       H    0.5610011590    0.5123418057    0.1857883146          -0.413
H677       H    0.5527946463    0.5108198989    0.1274036482         -0.4144
C678       C    0.4211011488    0.5038481624    0.1230110602         -0.4205
H679       H    0.4594699896    0.4905880780    0.2018213811          0.5683
H680       H    0.4141065456    0.4897743595    0.1003500905          0.5673
H681       H    0.4334034966    0.5275527149    0.1162425313         -0.3999
H682       H    0.3984508792    0.5087312797    0.1378446419         -0.4162
O683       O    0.4434290497    0.4825103899    0.1420564362          0.5611
N684       N    0.5176166604    0.5045300575    0.2623946861         -0.4195
N685       N    0.4847755269    0.5004996257    0.2798778776          0.5771
N686       N    0.4793011896    0.4999124976    0.3113749172          0.5767
C687       C    0.4790316287    0.4999551322    0.3441489277          0.5768
C688       C    0.5000000000    0.5000000000    0.3708249550          0.5769
H689       H    0.5268190338    0.5000554822    0.3649815942          0.5769
H690       H    0.4524133309    0.4998947967    0.3362793993          0.5767
C647       C    0.5000000000    0.8708249550    0.5000000000          0.5762
C648       C    0.4936885399    0.8570518087    0.5306418556         -0.4182
C649       C    0.4927066076    0.8237477754    0.5356968086         -0.4172
C650       C    0.4975641600    0.8021728765    0.5104041724         -0.4215
C651       C    0.5043574202    0.8154120382    0.4802049319          0.5725
C652       C    0.5060434002    0.8487758912    0.4746714252          0.5709
N653       N    0.4964003755    0.7698139379    0.5147586122         -0.4204
H654       H    0.4878782047    0.8142116854    0.5610452590          -0.413
H655       H    0.4893705144    0.8725963518    0.5528333126         -0.4144
C656       C    0.4958674049    0.8769889398    0.4211155356         -0.4205
H657       H    0.5092657362    0.7981786189    0.4594363198          0.5683
H658       H    0.5099158984    0.8996499095    0.4140702368          0.5673
H659       H    0.4722073608    0.8837574687    0.4335032665         -0.3999
H660       H    0.4909026573    0.8621553581    0.3984830185         -0.4162
O661       O    0.5172855386    0.8579435638    0.4433663613          0.5611
N662       N    0.4955334861    0.7376053139    0.5176328783         -0.4195
N663       N    0.4994454881    0.7201221224    0.4847774272          0.5771
N664       N    0.5000128755    0.6886250828    0.4793010087          0.5767
C665       C    0.4999692693    0.6558510723    0.4790316032          0.5768
C666       C    0.5000000000    0.6291750450    0.5000000000          0.5769
H667       H    0.5000412100    0.6350184058    0.5268190596          0.5769
H668       H    0.4999336363    0.6637206007    0.4524132609          0.5767
C625       C    0.5000000000    1.1291750450    0.5000000000          0.5762
C626       C    0.4693810985    1.1429481913    0.5064218936         -0.4182
C627       C    0.4643297186    1.1762522246    0.5074220444         -0.4172
C628       C    0.4896046773    1.1978271235    0.5024733348         -0.4215
C629       C    0.5197792294    1.1845879618    0.4955712400          0.5725
C630       C    0.5253066217    1.1512241088    0.4938653208          0.5709
N631       N    0.4852544616    1.2301860621    0.5036528110         -0.4204
H632       H    0.4389988410    1.1857883146    0.5123418057          -0.413
H633       H    0.4472053537    1.1274036482    0.5108198989         -0.4144
C634       C    0.5788988512    1.1230110602    0.5038481624         -0.4205
H635       H    0.5405300104    1.2018213811    0.4905880780          0.5683
H636       H    0.5858934544    1.1003500905    0.4897743595          0.5673
H637       H    0.5665965034    1.1162425313    0.5275527149         -0.3999
H638       H    0.6015491208    1.1378446419    0.5087312797         -0.4162
O639       O    0.5565709503    1.1420564362    0.4825103899          0.5611
N640       N    0.4823833396    1.2623946861    0.5045300575         -0.4195
N641       N    0.5152244731    1.2798778776    0.5004996257          0.5771
N642       N    0.5206988104    1.3113749172    0.4999124976          0.5767
C643       C    0.5209683713    1.3441489277    0.4999551322          0.5768
C644       C    0.5000000000    1.3708249550    0.5000000000          0.5769
H645       H    0.4731809662    1.3649815942    0.5000554822          0.5769
H646       H    0.5475866691    1.3362793993    0.4998947967          0.5767
C603       C    0.5000000000    0.8708249550    0.0000000000          0.5762
C604       C    0.5271078380    0.8570518087    0.0156180333         -0.4182
C605       C    0.5315984052    0.8237477754    0.0181382609         -0.4172
C606       C    0.5091122328    0.8021728765    0.0055809797         -0.4215
C607       C    0.4825759588    0.8154120382   -0.0103554151          0.5725
C608       C    0.4778522409    0.8487758912   -0.0136943841          0.5709
N609       N    0.5128806224    0.7698139379    0.0080537877         -0.4204
H610       H    0.5541467235    0.8142116854    0.0306854022          -0.413
H611       H    0.5468193239    0.8725963518    0.0266888704         -0.4144
C612       C    0.4238109071    0.8769889398   -0.0208580727         -0.4205
H613       H    0.4644007236    0.7981786189   -0.0215396736          0.5683
H614       H    0.4215356007    0.8996499095   -0.0364086156          0.5673
H615       H    0.4281387227    0.8837574687    0.0054957426         -0.3999
H616       H    0.4007645195    0.8621553581   -0.0232546467         -0.4162
O617       O    0.4516637364    0.8579435638   -0.0342018201          0.5611
N618       N    0.5153370432    0.7376053139    0.0097797367         -0.4195
N619       N    0.4853738891    0.7201221224   -0.0042557120          0.5771
N620       N    0.4803529648    0.6886250828   -0.0065147844          0.5767
C621       C    0.4800834995    0.6558510723   -0.0065580192          0.5768
C622       C    0.5000000000    0.6291750450    0.0000000000          0.5769
H623       H    0.5254742585    0.6350184058    0.0083860483          0.5769
H624       H    0.4548015487    0.6637206007   -0.0148863071          0.5767
C581       C    0.5000000000    1.3708249550    0.0000000000          0.5762
C582       C    0.5231694527    1.3570518087   -0.0210222336         -0.4182
C583       C    0.5269438346    1.3237477754   -0.0245252012         -0.4172
C584       C    0.5081034654    1.3021728765   -0.0069651970         -0.4215
C585       C    0.4848059918    1.3154120382    0.0134154369          0.5725
C586       C    0.4801808058    1.3487758912    0.0168896102          0.5709
N587       N    0.5116115369    1.2698139379   -0.0097952101         -0.4204
H588       H    0.5457935835    1.3142116854   -0.0421474706          -0.413
H589       H    0.5397450444    1.3725963518   -0.0363961032         -0.4144
C590       C    0.4568109949    1.3769889398    0.0661403576         -0.4205
H591       H    0.4685929103    1.2981786189    0.0272921370          0.5683
H592       H    0.4413108346    1.3996499095    0.0635439305          0.5673
H593       H    0.4832239187    1.3837574687    0.0700914364         -0.3999
H594       H    0.4474715437    1.3621553581    0.0873454089         -0.4162
O595       O    0.4526384348    1.3579435638    0.0355392884          0.5611
N596       N    0.5140068411    1.2376053139   -0.0116050225         -0.4195
N597       N    0.4914694798    1.2201221224    0.0126200013          0.5771
N598       N    0.4877812811    1.1886250828    0.0167078221          0.5767
C599       C    0.4876575991    1.1558510723    0.0169510987          0.5768
C600       C    0.5000000000    1.1291750450    0.0000000000          0.5769
H601       H    0.5157846751    1.1350184058   -0.0216819668          0.5769
H602       H    0.4719868039    1.1637206007    0.0384676875          0.5767
C559       C    0.5000000000    1.0000000000   -0.1291750450          0.5762
C560       C    0.4935822566    0.9693802284   -0.1429481913         -0.4182
C561       C    0.4925827906    0.9643287129   -0.1762522246         -0.4172
C562       C    0.4975280742    0.9896043421   -0.1978271235         -0.4215
C563       C    0.5044260790    1.0197798296   -0.1845879618          0.5725
C564       C    0.5061312490    1.0253074529   -0.1512241088          0.5709
N565       N    0.4963491877    0.9852539666   -0.2301860621         -0.4204
H566       H    0.4876664627    0.9389971687   -0.1857883146          -0.413
H567       H    0.4891872572    0.9472038876   -0.1274036482         -0.4144
C568       C    0.4961411434    1.0788983288   -0.1230110602         -0.4205
H569       H    0.5094064284    1.0405312858   -0.2018213811          0.5683
H570       H    0.5102139981    1.0858948397   -0.1003500905          0.5673
H571       H    0.4724382586    1.0665927682   -0.1162425313         -0.3999
H572       H    0.4912549560    1.1015479364   -0.1378446419         -0.4162
O573       O    0.5174819421    1.0565733204   -0.1420564362          0.5611
N574       N    0.4954723304    0.9823827258   -0.2623946861         -0.4195
N575       N    0.4994983108    1.0152244052   -0.2798778776          0.5771
N576       N    0.5000846968    1.0206988221   -0.3113749172          0.5767
C577       C    0.5000420257    1.0209683772   -0.3441489277          0.5768
C578       C    0.5000000000    1.0000000000   -0.3708249550          0.5769
H579       H    0.4999481529    0.9731809589   -0.3649815942          0.5769
H580       H    0.5000987533    1.0475866829   -0.3362793993          0.5767
C537       C    0.5000000000    1.0000000000    0.1291750450          0.5762
C538       C    0.5306189015    1.0064218936    0.1429481913         -0.4182
C539       C    0.5356702814    1.0074220444    0.1762522246         -0.4172
C540       C    0.5103953227    1.0024733348    0.1978271235         -0.4215
C541       C    0.4802207706    0.9955712400    0.1845879618          0.5725
C542       C    0.4746933783    0.9938653208    0.1512241088          0.5709
N543       N    0.5147455384    1.0036528110    0.2301860621         -0.4204
H544       H    0.5610011590    1.0123418057    0.1857883146          -0.413
H545       H    0.5527946463    1.0108198989    0.1274036482         -0.4144
C546       C    0.4211011488    1.0038481624    0.1230110602         -0.4205
H547       H    0.4594699896    0.9905880780    0.2018213811          0.5683
H548       H    0.4141065456    0.9897743595    0.1003500905          0.5673
H549       H    0.4334034966    1.0275527149    0.1162425313         -0.3999
H550       H    0.3984508792    1.0087312797    0.1378446419         -0.4162
O551       O    0.4434290497    0.9825103899    0.1420564362          0.5611
N552       N    0.5176166604    1.0045300575    0.2623946861         -0.4195
N553       N    0.4847755269    1.0004996257    0.2798778776          0.5771
N554       N    0.4793011896    0.9999124976    0.3113749172          0.5767
C555       C    0.4790316287    0.9999551322    0.3441489277          0.5768
C556       C    0.5000000000    1.0000000000    0.3708249550          0.5769
H557       H    0.5268190338    1.0000554822    0.3649815942          0.5769
H558       H    0.4524133309    0.9998947967    0.3362793993          0.5767
C515       C    0.8708249550    0.5000000000    0.5000000000          0.5762
C516       C    0.8570518087    0.4828021224    0.5261340937         -0.4182
C517       C    0.8237477754    0.4799230928    0.5304035115         -0.4172
C518       C    0.8021728765    0.4943677307    0.5090806202         -0.4215
C519       C    0.8154120382    0.5109119413    0.4829189763          0.5725
C520       C    0.8487758912    0.5136313208    0.4778133715          0.5709
N521       N    0.7698139379    0.4921125389    0.5129831386         -0.4204
H522       H    0.8142116854    0.4654183809    0.5517452721          -0.413
H523       H    0.8725963518    0.4701682245    0.5448821797         -0.4144
C524       C    0.8769889398    0.5586891605    0.4471282731         -0.4205
H525       H    0.7981786189    0.5221224797    0.4647599388          0.5683
H526       H    0.8996499095    0.5537335525    0.4322139058          0.5673
H527       H    0.8837574687    0.5666660444    0.4726159739         -0.3999
H528       H    0.8621553581    0.5782003563    0.4346305618         -0.4162
O529       O    0.8579435638    0.5278106863    0.4477245315          0.5611
N530       N    0.7376053139    0.4906937481    0.5156288777         -0.4195
N531       N    0.7201221224    0.5111535788    0.4896254211          0.5771
N532       N    0.6886250828    0.5146237559    0.4853509669          0.5767
C533       C    0.6558510723    0.5148450500    0.4851912492          0.5768
C534       C    0.6291750450    0.5000000000    0.5000000000          0.5769
H535       H    0.6350184058    0.4810114939    0.5189393847          0.5769
H536       H    0.6637206007    0.5336877173    0.4663898848          0.5767
C493       C    1.1291750450    0.5000000000    0.5000000000          0.5762
C494       C    1.1429481913    0.5261340937    0.4828021224         -0.4182
C495       C    1.1762522246    0.5304035115    0.4799230928         -0.4172
C496       C    1.1978271235    0.5090806202    0.4943677307         -0.4215
C497       C    1.1845879618    0.4829189763    0.5109119413          0.5725
C498       C    1.1512241088    0.4778133715    0.5136313208          0.5709
N499       N    1.2301860621    0.5129831386    0.4921125389         -0.4204
H500       H    1.1857883146    0.5517452721    0.4654183809          -0.413
H501       H    1.1274036482    0.5448821797    0.4701682245         -0.4144
C502       C    1.1230110602    0.4471282731    0.5586891605         -0.4205
H503       H    1.2018213811    0.4647599388    0.5221224797          0.5683
H504       H    1.1003500905    0.4322139058    0.5537335525          0.5673
H505       H    1.1162425313    0.4726159739    0.5666660444         -0.3999
H506       H    1.1378446419    0.4346305618    0.5782003563         -0.4162
O507       O    1.1420564362    0.4477245315    0.5278106863          0.5611
N508       N    1.2623946861    0.5156288777    0.4906937481         -0.4195
N509       N    1.2798778776    0.4896254211    0.5111535788          0.5771
N510       N    1.3113749172    0.4853509669    0.5146237559          0.5767
C511       C    1.3441489277    0.4851912492    0.5148450500          0.5768
C512       C    1.3708249550    0.5000000000    0.5000000000          0.5769
H513       H    1.3649815942    0.5189393847    0.4810114939          0.5769
H514       H    1.3362793993    0.4663898848    0.5336877173          0.5767
C471       C    0.6291750450    0.5000000000    0.0000000000          0.5762
C472       C    0.6429481913    0.5312179314    0.0020490492         -0.4182
C473       C    0.6762522246    0.5363597907    0.0023283763         -0.4172
C474       C    0.6978271235    0.5106399390    0.0009858083         -0.4215
C475       C    0.6845879618    0.4797943571   -0.0016011956          0.5725
C476       C    0.6512241088    0.4740819013   -0.0025122793          0.5709
N477       N    0.7301860621    0.5151128479    0.0015413497         -0.4204
H478       H    0.6857883146    0.5621309311    0.0036344149          -0.413
H479       H    0.6274036482    0.5537919122    0.0032825394         -0.4144
C480       C    0.6230110602    0.4224278705    0.0149131414         -0.4205
H481       H    0.7018213811    0.4585488114   -0.0036145516          0.5683
H482       H    0.6003500905    0.4135222977    0.0019637330          0.5673
H483       H    0.6162425313    0.4379436824    0.0366505090         -0.3999
H484       H    0.6378446419    0.4006902006    0.0229351897         -0.4162
O485       O    0.6420564362    0.4415307495   -0.0093544441          0.5611
N486       N    0.7623946861    0.5180788505    0.0020058190         -0.4195
N487       N    0.7798778776    0.4849973476    0.0026371626          0.5771
N488       N    0.8113749172    0.4794948639    0.0028262699          0.5767
C489       C    0.8441489277    0.4792339854    0.0029064149          0.5768
C490       C    0.8708249550    0.5000000000    0.0000000000          0.5769
H491       H    0.8649815942    0.5265599468   -0.0037192580          0.5769
H492       H    0.8362793993    0.4528720941    0.0065926187          0.5767
C449       C    1.1291750450    0.5000000000    0.0000000000          0.5762
C450       C    1.1429481913    0.5300090779   -0.0088438163         -0.4182
C451       C    1.1762522246    0.5349317662   -0.0103550676         -0.4172
C452       C    1.1978271235    0.5103270652   -0.0027444205         -0.4215
C453       C    1.1845879618    0.4804819472    0.0054660265          0.5725
C454       C    1.1512241088    0.4748057807    0.0065810866          0.5709
N455       N    1.2301860621    0.5147171177   -0.0037656840         -0.4204
H456       H    1.1857883146    0.5595720097   -0.0180176922          -0.413
H457       H    1.1274036482    0.5516233218   -0.0154718302         -0.4144
C458       C    1.1230110602    0.4323313778    0.0407528482         -0.4205
H459       H    1.2018213811    0.4598456463    0.0109038481          0.5683
H460       H    1.1003500905    0.4195059838    0.0316695848          0.5673
H461       H    1.1162425313    0.4543923839    0.0558049435         -0.3999
H462       H    1.1378446419    0.4146943832    0.0557800226         -0.4162
O463       O    1.1420564362    0.4418921345    0.0113857301          0.5611
N464       N    1.2623946861    0.5176613188   -0.0043526960         -0.4195
N465       N    1.2798778776    0.4868274941    0.0076497904          0.5771
N466       N    1.3113749172    0.4817278738    0.0097251125          0.5767
C467       C    1.3441489277    0.4815106454    0.0098903172          0.5768
C468       C    1.3708249550    0.5000000000    0.0000000000          0.5769
H469       H    1.3649815942    0.5236474118   -0.0126516231          0.5769
H470       H    1.3362793993    0.4580377356    0.0224426047          0.5767
C427       C    1.0000000000    0.5000000000   -0.3708249550          0.5762
C428       C    1.0306189015    0.5064218936   -0.3570518087         -0.4182
C429       C    1.0356702814    0.5074220444   -0.3237477754         -0.4172
C430       C    1.0103953227    0.5024733348   -0.3021728765         -0.4215
C431       C    0.9802207706    0.4955712400   -0.3154120382          0.5725
C432       C    0.9746933783    0.4938653208   -0.3487758912          0.5709
N433       N    1.0147455384    0.5036528110   -0.2698139379         -0.4204
H434       H    1.0610011590    0.5123418057   -0.3142116854          -0.413
H435       H    1.0527946463    0.5108198989   -0.3725963518         -0.4144
C436       C    0.9211011488    0.5038481624   -0.3769889398         -0.4205
H437       H    0.9594699896    0.4905880780   -0.2981786189          0.5683
H438       H    0.9141065456    0.4897743595   -0.3996499095          0.5673
H439       H    0.9334034966    0.5275527149   -0.3837574687         -0.3999
H440       H    0.8984508792    0.5087312797   -0.3621553581         -0.4162
O441       O    0.9434290497    0.4825103899   -0.3579435638          0.5611
N442       N    1.0176166604    0.5045300575   -0.2376053139         -0.4195
N443       N    0.9847755269    0.5004996257   -0.2201221224          0.5771
N444       N    0.9793011896    0.4999124976   -0.1886250828          0.5767
C445       C    0.9790316287    0.4999551322   -0.1558510723          0.5768
C446       C    1.0000000000    0.5000000000   -0.1291750450          0.5769
H447       H    1.0268190338    0.5000554822   -0.1350184058          0.5769
H448       H    0.9524133309    0.4998947967   -0.1637206007          0.5767
C405       C    1.0000000000    0.5000000000    0.1291750450          0.5762
C406       C    0.9693810985    0.4935781064    0.1429481913         -0.4182
C407       C    0.9643297186    0.4925779556    0.1762522246         -0.4172
C408       C    0.9896046773    0.4975266652    0.1978271235         -0.4215
C409       C    1.0197792294    0.5044287600    0.1845879618          0.5725
C410       C    1.0253066217    0.5061346792    0.1512241088          0.5709
N411       N    0.9852544616    0.4963471890    0.2301860621         -0.4204
H412       H    0.9389988410    0.4876581943    0.1857883146          -0.413
H413       H    0.9472053537    0.4891801011    0.1274036482         -0.4144
C414       C    1.0788988512    0.4961518376    0.1230110602         -0.4205
H415       H    1.0405300104    0.5094119220    0.2018213811          0.5683
H416       H    1.0858934544    0.5102256405    0.1003500905          0.5673
H417       H    1.0665965034    0.4724472851    0.1162425313         -0.3999
H418       H    1.1015491208    0.4912687203    0.1378446419         -0.4162
O419       O    1.0565709503    0.5174896101    0.1420564362          0.5611
N420       N    0.9823833396    0.4954699425    0.2623946861         -0.4195
N421       N    1.0152244731    0.4995003743    0.2798778776          0.5771
N422       N    1.0206988104    0.5000875024    0.3113749172          0.5767
C423       C    1.0209683713    0.5000448678    0.3441489277          0.5768
C424       C    1.0000000000    0.5000000000    0.3708249550          0.5769
H425       H    0.9731809662    0.4999445178    0.3649815942          0.5769
H426       H    1.0475866691    0.5001052033    0.3362793993          0.5767
C383       C    1.0000000000   -0.1291750450    0.5000000000          0.5762
C384       C    1.0306189015   -0.1429481913    0.5064218936         -0.4182
C385       C    1.0356702814   -0.1762522246    0.5074220444         -0.4172
C386       C    1.0103953227   -0.1978271235    0.5024733348         -0.4215
C387       C    0.9802207706   -0.1845879618    0.4955712400          0.5725
C388       C    0.9746933783   -0.1512241088    0.4938653208          0.5709
N389       N    1.0147455384   -0.2301860621    0.5036528110         -0.4204
H390       H    1.0610011590   -0.1857883146    0.5123418057          -0.413
H391       H    1.0527946463   -0.1274036482    0.5108198989         -0.4144
C392       C    0.9211011488   -0.1230110602    0.5038481624         -0.4205
H393       H    0.9594699896   -0.2018213811    0.4905880780          0.5683
H394       H    0.9141065456   -0.1003500905    0.4897743595          0.5673
H395       H    0.9334034966   -0.1162425313    0.5275527149         -0.3999
H396       H    0.8984508792   -0.1378446419    0.5087312797         -0.4162
O397       O    0.9434290497   -0.1420564362    0.4825103899          0.5611
N398       N    1.0176166604   -0.2623946861    0.5045300575         -0.4195
N399       N    0.9847755269   -0.2798778776    0.5004996257          0.5771
N400       N    0.9793011896   -0.3113749172    0.4999124976          0.5767
C401       C    0.9790316287   -0.3441489277    0.4999551322          0.5768
C402       C    1.0000000000   -0.3708249550    0.5000000000          0.5769
H403       H    1.0268190338   -0.3649815942    0.5000554822          0.5769
H404       H    0.9524133309   -0.3362793993    0.4998947967          0.5767
C361       C    1.0000000000    0.1291750450    0.5000000000          0.5762
C362       C    1.0302841625    0.1429481913    0.4921496912         -0.4182
C363       C    1.0352830990    0.1762522246    0.4909138212         -0.4172
C364       C    1.0102679374    0.1978271235    0.4970420309         -0.4215
C365       C    0.9804501484    0.1845879618    0.5053511808          0.5725
C366       C    0.9750088109    0.1512241088    0.5073143597          0.5709
N367       N    1.0145580734    0.2301860621    0.4956599046         -0.4204
H368       H    1.0603554751    0.1857883146    0.4848119063          -0.413
H369       H    1.0522293361    0.1274036482    0.4867168778         -0.4144
C370       C    0.9210074937    0.1230110602    0.4998550077         -0.4205
H371       H    0.9599558051    0.2018213811    0.5113017025          0.5683
H372       H    0.9146803901    0.1003500905    0.5142412568          0.5673
H373       H    0.9321849965    0.1162425313    0.4755997609         -0.3999
H374       H    0.8981531991    0.1378446419    0.4960391506         -0.4162
O375       O    0.9443112018    0.1420564362    0.5201225405          0.5611
N376       N    1.0173849113    0.2623946861    0.4946490187         -0.4195
N377       N    0.9847688438    0.2798778776    0.5002146780          0.5771
N378       N    0.9793280516    0.3113749172    0.5010578086          0.5767
C379       C    0.9790567883    0.3441489277    0.5010278585          0.5768
C380       C    1.0000000000    0.3708249550    0.5000000000          0.5769
H381       H    1.0267869434    0.3649815942    0.4986872479          0.5769
H382       H    0.9524705878    0.3362793993    0.5023360476          0.5767
C339       C    0.8708249550    0.0000000000    0.5000000000          0.5762
C340       C    0.8570518087    0.0075023256    0.4696277601         -0.4182
C341       C    0.8237477754    0.0087934591    0.4646428113         -0.4172
C342       C    0.8021728765    0.0022830665    0.4895612392         -0.4215
C343       C    0.8154120382   -0.0045937966    0.5197415518          0.5725
C344       C    0.8487758912   -0.0054556663    0.5254616396          0.5709
N345       N    0.7698139379    0.0031083511    0.4851301619         -0.4204
H346       H    0.8142116854    0.0153541994    0.4396865676          -0.413
H347       H    0.8725963518    0.0131638670    0.4477404794         -0.4144
C348       C    0.8769889398   -0.0377073355    0.5694117707         -0.4205
H349       H    0.7981786189   -0.0091097524    0.5405989955          0.5683
H350       H    0.8996499095   -0.0280634327    0.5818211035          0.5673
H351       H    0.8837574687   -0.0537243533    0.5480410265         -0.3999
H352       H    0.8621553581   -0.0519363877    0.5876987503         -0.4162
O353       O    0.8579435638   -0.0087938068    0.5585561939          0.5611
N354       N    0.7376053139    0.0035640259    0.4821627955         -0.4195
N355       N    0.7201221224   -0.0070572245    0.5134992514          0.5771
N356       N    0.6886250828   -0.0089040142    0.5186860092          0.5767
C357       C    0.6558510723   -0.0090594084    0.5189103603          0.5768
C358       C    0.6291750450    0.0000000000    0.5000000000          0.5769
H359       H    0.6350184058    0.0115889099    0.4758140367          0.5769
H360       H    0.6637206007   -0.0205568306    0.5429175821          0.5767
C317       C    1.1291750450   -0.0000000000    0.5000000000          0.5762
C318       C    1.1429481913   -0.0189067175    0.4750742326         -0.4182
C319       C    1.1762522246   -0.0220647577    0.4710068597         -0.4172
C320       C    1.1978271235   -0.0062267956    0.4913162717         -0.4215
C321       C    1.1845879618    0.0120295596    0.5163132317          0.5725
C322       C    1.1512241088    0.0150842143    0.5212255947          0.5709
N323       N    1.2301860621   -0.0087378629    0.4875732675         -0.4204
H324       H    1.1857883146   -0.0379639210    0.4506826372          -0.413
H325       H    1.1274036482   -0.0327658402    0.4572127986         -0.4144
C326       C    1.1230110602    0.0620928334    0.5488294697         -0.4205
H327       H    1.2018213811    0.0244291241    0.5336821008          0.5683
H328       H    1.1003500905    0.0581454870    0.5640417956          0.5673
H329       H    1.1162425313    0.0683477634    0.5228654674         -0.3999
H330       H    1.1378446419    0.0823959659    0.5599946997         -0.4162
O331       O    1.1420564362    0.0312435879    0.5502990765          0.5611
N332       N    1.2623946861   -0.0103303729    0.4850283087         -0.4179
N333       N    1.2798778776    0.0118222643    0.5096056376          0.5771
N334       N    1.3113749172    0.0155704660    0.5136385115          0.5767
C335       C    1.3441489277    0.0158019436    0.5137830761          0.5768
C336       C    1.3708249550   -0.0000000000    0.5000000000          0.5769
H337       H    1.3649815942   -0.0202123018    0.4823725638          0.5769
H338       H    1.3362793993    0.0358595050    0.5312825517          0.5767
C295       C   -0.0000000000   -0.1291750450    0.0000000000          0.5762
C296       C   -0.0117105001   -0.1429481913    0.0290107227         -0.4182
C297       C   -0.0135840690   -0.1762522246    0.0338072298         -0.4172
C298       C   -0.0042642778   -0.1978271235    0.0097977577         -0.4215
C299       C    0.0078407235   -0.1845879618   -0.0186910376          0.5725
C300       C    0.0104928212   -0.1512241088   -0.0238319133          0.5709
N301       N   -0.0061909699   -0.2301860621    0.0138724843         -0.4204
H302       H   -0.0228852055   -0.1857883146    0.0578768428          -0.413
H303       H   -0.0199427295   -0.1274036482    0.0500662804         -0.4144
C304       C    0.0100979006   -0.1230110602   -0.0783445561         -0.4205
H305       H    0.0163981858   -0.2018213811   -0.0382408881          0.5683
H306       H    0.0251830525   -0.1003500905   -0.0827530247          0.5673
H307       H   -0.0154018203   -0.1162425313   -0.0704061808         -0.3999
H308       H    0.0092773952   -0.1378446419   -0.1015006853         -0.4162
O309       O    0.0271729505   -0.1420564362   -0.0526097865          0.5611
N310       N   -0.0075598332   -0.2623946861    0.0165443968         -0.4195
N311       N    0.0021876414   -0.2798778776   -0.0150747614          0.5771
N312       N    0.0037290741   -0.3113749172   -0.0203603147          0.5767
C313       C    0.0037345471   -0.3441489277   -0.0206331715          0.5768
C314       C   -0.0000000000   -0.3708249550    0.0000000000          0.5769
H315       H   -0.0047746974   -0.3649815942    0.0263906407          0.5769
H316       H    0.0084786930   -0.3362793993   -0.0468253554          0.5767
C273       C    0.0000000000    0.3708249550    0.0000000000          0.5762
C274       C   -0.0045429519    0.3570518087    0.0309535044         -0.4182
C275       C   -0.0052332330    0.3237477754    0.0360564695         -0.4172
C276       C   -0.0018348762    0.3021728765    0.0105267920         -0.4215
C277       C    0.0032144776    0.3154120382   -0.0200124703          0.5725
C278       C    0.0045801890    0.3487758912   -0.0256335963          0.5709
N279       N   -0.0027469026    0.2698139379    0.0149408318         -0.4204
H280       H   -0.0085992857    0.3142116854    0.0616401967          -0.413
H281       H   -0.0075806041    0.3725963518    0.0533561555         -0.4144
C282       C   -0.0086518721    0.3769889398   -0.0785174005         -0.4205
H283       H    0.0069230853    0.2981786189   -0.0410284890          0.5683
H284       H    0.0049692464    0.3996499095   -0.0863571412          0.5673
H285       H   -0.0315621795    0.3837574687   -0.0647925550         -0.3999
H286       H   -0.0149070071    0.3621553581   -0.1008277755         -0.4162
O287       O    0.0140076442    0.3579435638   -0.0575321196          0.5611
N288       N   -0.0034474497    0.2376053139    0.0178601017         -0.4195
N289       N   -0.0014270107    0.2201221224   -0.0151656799          0.5771
N290       N   -0.0011747737    0.1886250828   -0.0206656312          0.5767
C291       C   -0.0012337654    0.1558510723   -0.0209320909          0.5768
C292       C    0.0000000000    0.1291750450    0.0000000000          0.5769
H293       H    0.0015799159    0.1350184058    0.0267725143          0.5769
H294       H   -0.0027965972    0.1637206007   -0.0475045386          0.5767
C251       C   -0.3708249550   -0.0000000000    0.0000000000          0.5762
C252       C   -0.3570518087   -0.0265634882    0.0165269156         -0.4182
C253       C   -0.3237477754   -0.0309048236    0.0192963105         -0.4172
C254       C   -0.3021728765   -0.0092210768    0.0053992464         -0.4215
C255       C   -0.3154120382    0.0173533099   -0.0104735126          0.5725
C256       C   -0.3487758912    0.0225264964   -0.0130620194          0.5709
N257       N   -0.2698139379   -0.0131797485    0.0075543470         -0.4204
H258       H   -0.3142116854   -0.0526089629    0.0332529485          -0.413
H259       H   -0.3725963518   -0.0456271620    0.0286793824         -0.4144
C260       C   -0.3769889398    0.0543488424   -0.0573239949         -0.4205
H261       H   -0.2981786189    0.0357918866   -0.0212180789          0.5683
H262       H   -0.3996499095    0.0691322027   -0.0519902662          0.5673
H263       H   -0.3837574687    0.0290724994   -0.0659472224         -0.3999
H264       H   -0.3621553581    0.0673392670   -0.0765106678         -0.4162
O265       O   -0.3579435638    0.0529665961   -0.0264707116          0.5611
N266       N   -0.2376053139   -0.0158607531    0.0089053162         -0.4195
N267       N   -0.2201221224    0.0106551914   -0.0108858212          0.5771
N268       N   -0.1886250828    0.0150166123   -0.0142460437          0.5767
C269       C   -0.1558510723    0.0151819125   -0.0144631996          0.5768
C270       C   -0.1291750450   -0.0000000000    0.0000000000          0.5769
H271       H   -0.1350184058   -0.0194167018    0.0185001445          0.5769
H272       H   -0.1637206007    0.0344569257   -0.0328210666          0.5767
C229       C    0.3708249550   -0.0000000000    0.0000000000          0.5762
C230       C    0.3570518087    0.0076553797   -0.0303340239         -0.4182
C231       C    0.3237477754    0.0089716329   -0.0353123989         -0.4172
C232       C    0.3021728765    0.0023356740   -0.0104271159         -0.4215
C233       C    0.3154120382   -0.0046932832    0.0197181369          0.5725
C234       C    0.3487758912   -0.0055839851    0.0254338062          0.5709
N235       N    0.2698139379    0.0031832915   -0.0148539754         -0.4204
H236       H    0.3142116854    0.0156581296   -0.0602352434          -0.413
H237       H    0.3725963518    0.0134272138   -0.0521924786         -0.4144
C238       C    0.3769889398   -0.0380568591    0.0692207523         -0.4205
H239       H    0.2981786189   -0.0093143536    0.0405525442          0.5683
H240       H    0.3996499095   -0.0284756518    0.0816785559          0.5673
H241       H    0.3837574687   -0.0539659131    0.0477695153         -0.3999
H242       H    0.3621553581   -0.0523779409    0.0874357506         -0.4162
O243       O    0.3579435638   -0.0090889596    0.0585111074          0.5611
N244       N    0.2376053139    0.0036539232   -0.0178190064         -0.4195
N245       N    0.2201221224   -0.0071252036    0.0134634944          0.5771
N246       N    0.1886250828   -0.0089981236    0.0186408739          0.5767
C247       C    0.1558510723   -0.0091546471    0.0188644386          0.5768
C248       C    0.1291750450   -0.0000000000    0.0000000000          0.5769
H249       H    0.1350184058    0.0117107182   -0.0241272198          0.5769
H250       H    0.1637206007   -0.0207729775    0.0428133804          0.5767
C207       C   -0.0000000000    0.0000000000   -0.3708249550          0.5762
C208       C   -0.0306207818   -0.0064129217   -0.3570518087         -0.4182
C209       C   -0.0356724546   -0.0074115923   -0.3237477754         -0.4172
C210       C   -0.0103960470   -0.0024702888   -0.3021728765         -0.4215
C211       C    0.0197805263    0.0044229643   -0.3154120382          0.5725
C212       C    0.0253084181    0.0061272638   -0.3487758912          0.5709
N213       N   -0.0147466081   -0.0036484903   -0.2698139379         -0.4204
H214       H   -0.0610047726   -0.0123239313   -0.3142116854          -0.413
H215       H   -0.0527978144   -0.0108044290   -0.3725963518         -0.4144
C216       C    0.0788977202   -0.0038712804   -0.3769889398         -0.4205
H217       H    0.0405327665    0.0094000459   -0.2981786189          0.5683
H218       H    0.0858964470    0.0102004724   -0.3996499095          0.5673
H219       H    0.0665884273   -0.0275722272   -0.3837574687         -0.3999
H220       H    0.1015465581   -0.0087610343   -0.3621553581         -0.4162
O221       O    0.0565760725    0.0174730335   -0.3579435638          0.5611
N222       N   -0.0176179870   -0.0045248955   -0.2376053139         -0.4195
N223       N    0.0152243260   -0.0005040866   -0.2201221224          0.5771
N224       N    0.0206988351    0.0000814374   -0.1886250828          0.5767
C225       C    0.0209683836    0.0000387239   -0.1558510723          0.5768
C226       C    0.0000000000    0.0000000000   -0.1291750450          0.5769
H227       H   -0.0268190489   -0.0000476239   -0.1350184058          0.5769
H228       H    0.0475866978    0.0000912600   -0.1637206007          0.5767
C185       C   -0.0000000000    0.0000000000    0.3708249550          0.5762
C186       C   -0.0119752198   -0.0289024559    0.3570518087         -0.4182
C187       C   -0.0138925590   -0.0336816348    0.3237477754         -0.4172
C188       C   -0.0043536684   -0.0097583652    0.3021728765         -0.4215
C189       C    0.0080112649    0.0186185786    0.3154120382          0.5725
C190       C    0.0107102484    0.0237349946    0.3487758912          0.5709
N191       N   -0.0063175301   -0.0138153083    0.2698139379         -0.4204
H192       H   -0.0234133456   -0.0576652132    0.3142116854          -0.413
H193       H   -0.0203995901   -0.0498818766    0.3725963518         -0.4144
C194       C    0.0108136859    0.0782489697    0.3769889398         -0.4205
H195       H    0.0167470897    0.0380893819    0.2981786189          0.5683
H196       H    0.0259385087    0.0825193493    0.3996499095          0.5673
H197       H   -0.0147575401    0.0705440385    0.3837574687         -0.3999
H198       H    0.0102049026    0.1014116322    0.3621553581         -0.4162
O199       O    0.0276527612    0.0523591795    0.3579435638          0.5611
N200       N   -0.0077107623   -0.0164745953    0.2376053139         -0.4195
N201       N    0.0023253599    0.0150541326    0.2201221224          0.5771
N202       N    0.0039150474    0.0203253736    0.1886250828          0.5767
C203       C    0.0039230146    0.0205981690    0.1558510723          0.5768
C204       C   -0.0000000000    0.0000000000    0.1291750450          0.5769
H205       H   -0.0050157548   -0.0263458888    0.1350184058          0.5769
H206       H    0.0089064050    0.0467458885    0.1637206007          0.5767
loop_
_geom_bond_atom_site_label_1
_geom_bond_atom_site_label_2
_geom_bond_distance
_geom_bond_site_symmetry_2
_ccdc_geom_bond_type
Zn1          O5 1.942       .   S
Zn1          O6 1.922       .   S
Zn1         O10 1.922       .   S
Zn1         O17 1.922       .   S
Zn2          O5 1.942       .   S
Zn2          O7 1.922       .   S
Zn2          O9 1.922       .   S
Zn2         O13 1.922       .   S
Zn3          O5 1.942       .   S
Zn3          O8 1.922       .   S
Zn3         O11 1.922       .   S
Zn3         O14 1.922       .   S
Zn4          O5 1.942       .   S
Zn4         O12 1.922       .   S
Zn4         O15 1.922       .   S
Zn4         O16 1.922       .   S
O6          C18 1.304       .   A
O7          C19 1.304       .   A
O8          C20 1.304       .   A
O9          C18 1.304       .   A
O10         C20 1.304       .   A
O11         C19 1.304       .   A
O12         C21 1.304       .   A
O13         C22 1.304       .   A
O14         C21 1.304       .   A
O15         C22 1.304       .   A
O16         C23 1.304       .   A
O17         C23 1.304       .   A
C18        C204 1.540       .   S
C19        C248 1.540       .   S
C20        C295 1.540       .   S
C21        C226 1.540       .   S
C22        C292 1.540       .   S
C23        C270 1.540       .   S
Zn24        O28 1.942       .   S
Zn24        O29 1.922       .   S
Zn24        O33 1.922       .   S
Zn24        O40 1.922       .   S
Zn25        O28 1.942       .   S
Zn25        O30 1.922       .   S
Zn25        O32 1.922       .   S
Zn25        O36 1.922       .   S
Zn26        O28 1.942       .   S
Zn26        O31 1.922       .   S
Zn26        O34 1.922       .   S
Zn26        O37 1.922       .   S
Zn27        O28 1.942       .   S
Zn27        O35 1.922       .   S
Zn27        O38 1.922       .   S
Zn27        O39 1.922       .   S
O29         C41 1.304       .   A
O30         C42 1.304       .   A
O31         C43 1.304       .   A
O32         C41 1.304       .   A
O33         C43 1.304       .   A
O34         C42 1.304       .   A
O35         C44 1.304       .   A
O36         C45 1.304       .   A
O37         C44 1.304       .   A
O38         C45 1.304       .   A
O39         C46 1.304       .   A
O40         C46 1.304       .   A
C41        C185 1.540   1_655   S
C42        C383 1.540       .   S
C43        C317 1.540       .   S
C44        C207 1.540   1_656   S
C45        C339 1.540       .   S
C46        C361 1.540       .   S
Zn47        O51 1.942       .   S
Zn47        O52 1.922       .   S
Zn47        O56 1.922       .   S
Zn47        O63 1.922       .   S
Zn48        O51 1.942       .   S
Zn48        O53 1.922       .   S
Zn48        O55 1.922       .   S
Zn48        O59 1.922       .   S
Zn49        O51 1.942       .   S
Zn49        O54 1.922       .   S
Zn49        O57 1.922       .   S
Zn49        O60 1.922       .   S
Zn50        O51 1.942       .   S
Zn50        O58 1.922       .   S
Zn50        O61 1.922       .   S
Zn50        O62 1.922       .   S
O52         C64 1.304       .   A
O53         C65 1.304       .   A
O54         C66 1.304       .   A
O55         C64 1.304       .   A
O56         C66 1.304       .   A
O57         C65 1.304       .   A
O58         C67 1.304       .   A
O59         C68 1.304       .   A
O60         C67 1.304       .   A
O61         C68 1.304       .   A
O62         C69 1.304       .   A
O63         C69 1.304       .   A
C64        C273 1.540   1_655   S
C65        C405 1.540       .   S
C66        C449 1.540       .   S
C67        C314 1.540   1_665   S
C68        C490 1.540       .   S
C69        C446 1.540       .   S
Zn70        O74 1.942       .   S
Zn70        O75 1.922       .   S
Zn70        O79 1.922       .   S
Zn70        O86 1.922       .   S
Zn71        O74 1.942       .   S
Zn71        O76 1.922       .   S
Zn71        O78 1.922       .   S
Zn71        O82 1.922       .   S
Zn72        O74 1.942       .   S
Zn72        O77 1.922       .   S
Zn72        O80 1.922       .   S
Zn72        O83 1.922       .   S
Zn73        O74 1.942       .   S
Zn73        O81 1.922       .   S
Zn73        O84 1.922       .   S
Zn73        O85 1.922       .   S
O75         C87 1.304       .   A
O76         C88 1.304       .   A
O77         C89 1.304       .   A
O78         C87 1.304       .   A
O79         C89 1.304       .   A
O80         C88 1.304       .   A
O81         C90 1.304       .   A
O82         C91 1.304       .   A
O83         C90 1.304       .   A
O84         C91 1.304       .   A
O85         C92 1.304       .   A
O86         C92 1.304       .   A
C87        C380 1.540       .   S
C88        C424 1.540       .   S
C89        C515 1.540       .   S
C90        C402 1.540   1_565   S
C91        C493 1.540       .   S
C92        C427 1.540   1_556   S
Zn93        O97 1.942       .   S
Zn93        O98 1.922       .   S
Zn93       O102 1.922       .   S
Zn93       O109 1.922       .   S
Zn94        O97 1.942       .   S
Zn94        O99 1.922       .   S
Zn94       O101 1.922       .   S
Zn94       O105 1.922       .   S
Zn95        O97 1.942       .   S
Zn95       O100 1.922       .   S
Zn95       O103 1.922       .   S
Zn95       O106 1.922       .   S
Zn96        O97 1.942       .   S
Zn96       O104 1.922       .   S
Zn96       O107 1.922       .   S
Zn96       O108 1.922       .   S
O98        C110 1.304       .   A
O99        C111 1.304       .   A
O100       C112 1.304       .   A
O101       C110 1.304       .   A
O102       C112 1.304       .   A
O103       C111 1.304       .   A
O104       C113 1.304       .   A
O105       C114 1.304       .   A
O106       C113 1.304       .   A
O107       C114 1.304       .   A
O108       C115 1.304       .   A
O109       C115 1.304       .   A
C110       C229 1.540   1_565   S
C111       C537 1.540       .   S
C112       C603 1.540       .   S
C113       C251 1.540   1_665   S
C114       C600 1.540       .   S
C115       C559 1.540       .   S
Zn116      O120 1.942       .   S
Zn116      O121 1.922       .   S
Zn116      O125 1.922       .   S
Zn116      O132 1.922       .   S
Zn117      O120 1.942       .   S
Zn117      O122 1.922       .   S
Zn117      O124 1.922       .   S
Zn117      O128 1.922       .   S
Zn118      O120 1.942       .   S
Zn118      O123 1.922       .   S
Zn118      O126 1.922       .   S
Zn118      O129 1.922       .   S
Zn119      O120 1.942       .   S
Zn119      O127 1.922       .   S
Zn119      O130 1.922       .   S
Zn119      O131 1.922       .   S
O121       C133 1.304       .   A
O122       C134 1.304       .   A
O123       C135 1.304       .   A
O124       C133 1.304       .   A
O125       C135 1.304       .   A
O126       C134 1.304       .   A
O127       C136 1.304       .   A
O128       C137 1.304       .   A
O129       C136 1.304       .   A
O130       C137 1.304       .   A
O131       C138 1.304       .   A
O132       C138 1.304       .   A
C133       C336 1.540   1_465   S
C134       C556 1.540       .   S
C135       C625 1.540       .   S
C136       C358 1.540   1_565   S
C137       C647 1.540       .   S
C138       C578 1.540   1_556   S
Zn139      O143 1.942       .   S
Zn139      O144 1.922       .   S
Zn139      O148 1.922       .   S
Zn139      O155 1.922       .   S
Zn140      O143 1.942       .   S
Zn140      O145 1.922       .   S
Zn140      O147 1.922       .   S
Zn140      O151 1.922       .   S
Zn141      O143 1.942       .   S
Zn141      O146 1.922       .   S
Zn141      O149 1.922       .   S
Zn141      O152 1.922       .   S
Zn142      O143 1.942       .   S
Zn142      O150 1.922       .   S
Zn142      O153 1.922       .   S
Zn142      O154 1.922       .   S
O144       C156 1.304       .   A
O145       C157 1.304       .   A
O146       C158 1.304       .   A
O147       C156 1.304       .   A
O148       C158 1.304       .   A
O149       C157 1.304       .   A
O150       C159 1.304       .   A
O151       C160 1.304       .   A
O152       C159 1.304       .   A
O153       C160 1.304       .   A
O154       C161 1.304       .   A
O155       C161 1.304       .   A
C156       C691 1.540       .   S
C157       C471 1.540       .   S
C158       C622 1.540       .   S
C159       C669 1.540       .   S
C160       C581 1.540   1_545   S
C161       C468 1.540   1_455   S
Zn162      O166 1.942       .   S
Zn162      O167 1.922       .   S
Zn162      O171 1.922       .   S
Zn162      O178 1.922       .   S
Zn163      O166 1.942       .   S
Zn163      O168 1.922       .   S
Zn163      O170 1.922       .   S
Zn163      O174 1.922       .   S
Zn164      O166 1.942       .   S
Zn164      O169 1.922       .   S
Zn164      O172 1.922       .   S
Zn164      O175 1.922       .   S
Zn165      O166 1.942       .   S
Zn165      O173 1.922       .   S
Zn165      O176 1.922       .   S
Zn165      O177 1.922       .   S
O167       C179 1.304       .   A
O168       C180 1.304       .   A
O169       C181 1.304       .   A
O170       C179 1.304       .   A
O171       C181 1.304       .   A
O172       C180 1.304       .   A
O173       C182 1.304       .   A
O174       C183 1.304       .   A
O175       C182 1.304       .   A
O176       C183 1.304       .   A
O177       C184 1.304       .   A
O178       C184 1.304       .   A
C179       C512 1.540   1_455   S
C180       C644 1.540   1_545   S
C181       C688 1.540       .   S
C182       C534 1.540       .   S
C183       C710 1.540   1_556   S
C184       C666 1.540       .   S
C691       C692 0.030       .   A
C691       C696 0.030       .   A
C692       C693 0.029       .   A
C692       H699 0.024       .   A
C693       C694 0.029       .   A
C693       H698 0.024       .   A
C694       C695 0.029       .   A
C694       N697 0.028       .   A
C695       C696 0.029       .   A
C695       H701 0.024       .   A
C696       O705 0.030       .   A
N697       N706 0.028       .   A
C700       H702 0.024       .   A
C700       H703 0.024       .   A
C700       H704 0.024       .   A
C700       O705 0.031       .   A
N706       N707 0.032       .   A
N707       N708 0.028       .   A
N708       C709 0.028       .   A
C709       C710 0.029       .   A
C709       H712 0.024       .   A
C710       H711 0.024       .   A
C669       C670 0.030       .   A
C669       C674 0.030       .   A
C670       C671 0.029       .   A
C670       H677 0.024       .   A
C671       C672 0.029       .   A
C671       H676 0.024       .   A
C672       C673 0.029       .   A
C672       N675 0.028       .   A
C673       C674 0.029       .   A
C673       H679 0.024       .   A
C674       O683 0.030       .   A
N675       N684 0.028       .   A
C678       H680 0.024       .   A
C678       H681 0.024       .   A
C678       H682 0.024       .   A
C678       O683 0.031       .   A
N684       N685 0.032       .   A
N685       N686 0.028       .   A
N686       C687 0.028       .   A
C687       C688 0.029       .   A
C687       H690 0.024       .   A
C688       H689 0.024       .   A
C647       C648 0.030       .   A
C647       C652 0.030       .   A
C648       C649 0.029       .   A
C648       H655 0.024       .   A
C649       C650 0.029       .   A
C649       H654 0.024       .   A
C650       C651 0.029       .   A
C650       N653 0.028       .   A
C651       C652 0.029       .   A
C651       H657 0.024       .   A
C652       O661 0.030       .   A
N653       N662 0.028       .   A
C656       H658 0.024       .   A
C656       H659 0.024       .   A
C656       H660 0.024       .   A
C656       O661 0.031       .   A
N662       N663 0.032       .   A
N663       N664 0.028       .   A
N664       C665 0.028       .   A
C665       C666 0.029       .   A
C665       H668 0.024       .   A
C666       H667 0.024       .   A
C625       C626 0.030       .   A
C625       C630 0.030       .   A
C626       C627 0.029       .   A
C626       H633 0.024       .   A
C627       C628 0.029       .   A
C627       H632 0.024       .   A
C628       C629 0.029       .   A
C628       N631 0.028       .   A
C629       C630 0.029       .   A
C629       H635 0.024       .   A
C630       O639 0.030       .   A
N631       N640 0.028       .   A
C634       H636 0.024       .   A
C634       H637 0.024       .   A
C634       H638 0.024       .   A
C634       O639 0.031       .   A
N640       N641 0.032       .   A
N641       N642 0.028       .   A
N642       C643 0.028       .   A
C643       C644 0.029       .   A
C643       H646 0.024       .   A
C644       H645 0.024       .   A
C603       C604 0.030       .   A
C603       C608 0.030       .   A
C604       C605 0.029       .   A
C604       H611 0.024       .   A
C605       C606 0.029       .   A
C605       H610 0.024       .   A
C606       C607 0.029       .   A
C606       N609 0.028       .   A
C607       C608 0.029       .   A
C607       H613 0.024       .   A
C608       O617 0.030       .   A
N609       N618 0.028       .   A
C612       H614 0.024       .   A
C612       H615 0.024       .   A
C612       H616 0.024       .   A
C612       O617 0.031       .   A
N618       N619 0.032       .   A
N619       N620 0.028       .   A
N620       C621 0.028       .   A
C621       C622 0.029       .   A
C621       H624 0.024       .   A
C622       H623 0.024       .   A
C581       C582 0.030       .   A
C581       C586 0.030       .   A
C582       C583 0.029       .   A
C582       H589 0.024       .   A
C583       C584 0.029       .   A
C583       H588 0.024       .   A
C584       C585 0.029       .   A
C584       N587 0.028       .   A
C585       C586 0.029       .   A
C585       H591 0.024       .   A
C586       O595 0.030       .   A
N587       N596 0.028       .   A
C590       H592 0.024       .   A
C590       H593 0.024       .   A
C590       H594 0.024       .   A
C590       O595 0.031       .   A
N596       N597 0.032       .   A
N597       N598 0.028       .   A
N598       C599 0.028       .   A
C599       C600 0.029       .   A
C599       H602 0.024       .   A
C600       H601 0.024       .   A
C559       C560 0.030       .   A
C559       C564 0.030       .   A
C560       C561 0.029       .   A
C560       H567 0.024       .   A
C561       C562 0.029       .   A
C561       H566 0.024       .   A
C562       C563 0.029       .   A
C562       N565 0.028       .   A
C563       C564 0.029       .   A
C563       H569 0.024       .   A
C564       O573 0.030       .   A
N565       N574 0.028       .   A
C568       H570 0.024       .   A
C568       H571 0.024       .   A
C568       H572 0.024       .   A
C568       O573 0.031       .   A
N574       N575 0.032       .   A
N575       N576 0.028       .   A
N576       C577 0.028       .   A
C577       C578 0.029       .   A
C577       H580 0.024       .   A
C578       H579 0.024       .   A
C537       C538 0.030       .   A
C537       C542 0.030       .   A
C538       C539 0.029       .   A
C538       H545 0.024       .   A
C539       C540 0.029       .   A
C539       H544 0.024       .   A
C540       C541 0.029       .   A
C540       N543 0.028       .   A
C541       C542 0.029       .   A
C541       H547 0.024       .   A
C542       O551 0.030       .   A
N543       N552 0.028       .   A
C546       H548 0.024       .   A
C546       H549 0.024       .   A
C546       H550 0.024       .   A
C546       O551 0.031       .   A
N552       N553 0.032       .   A
N553       N554 0.028       .   A
N554       C555 0.028       .   A
C555       C556 0.029       .   A
C555       H558 0.024       .   A
C556       H557 0.024       .   A
C515       C516 0.030       .   A
C515       C520 0.030       .   A
C516       C517 0.029       .   A
C516       H523 0.024       .   A
C517       C518 0.029       .   A
C517       H522 0.024       .   A
C518       C519 0.029       .   A
C518       N521 0.028       .   A
C519       C520 0.029       .   A
C519       H525 0.024       .   A
C520       O529 0.030       .   A
N521       N530 0.028       .   A
C524       H526 0.024       .   A
C524       H527 0.024       .   A
C524       H528 0.024       .   A
C524       O529 0.031       .   A
N530       N531 0.032       .   A
N531       N532 0.028       .   A
N532       C533 0.028       .   A
C533       C534 0.029       .   A
C533       H536 0.024       .   A
C534       H535 0.024       .   A
C493       C494 0.030       .   A
C493       C498 0.030       .   A
C494       C495 0.029       .   A
C494       H501 0.024       .   A
C495       C496 0.029       .   A
C495       H500 0.024       .   A
C496       C497 0.029       .   A
C496       N499 0.028       .   A
C497       C498 0.029       .   A
C497       H503 0.024       .   A
C498       O507 0.030       .   A
N499       N508 0.028       .   A
C502       H504 0.024       .   A
C502       H505 0.024       .   A
C502       H506 0.024       .   A
C502       O507 0.031       .   A
N508       N509 0.032       .   A
N509       N510 0.028       .   A
N510       C511 0.028       .   A
C511       C512 0.029       .   A
C511       H514 0.024       .   A
C512       H513 0.024       .   A
C471       C472 0.030       .   A
C471       C476 0.030       .   A
C472       C473 0.029       .   A
C472       H479 0.024       .   A
C473       C474 0.029       .   A
C473       H478 0.024       .   A
C474       C475 0.029       .   A
C474       N477 0.028       .   A
C475       C476 0.029       .   A
C475       H481 0.024       .   A
C476       O485 0.030       .   A
N477       N486 0.028       .   A
C480       H482 0.024       .   A
C480       H483 0.024       .   A
C480       H484 0.024       .   A
C480       O485 0.031       .   A
N486       N487 0.032       .   A
N487       N488 0.028       .   A
N488       C489 0.028       .   A
C489       C490 0.029       .   A
C489       H492 0.024       .   A
C490       H491 0.024       .   A
C449       C450 0.030       .   A
C449       C454 0.030       .   A
C450       C451 0.029       .   A
C450       H457 0.024       .   A
C451       C452 0.029       .   A
C451       H456 0.024       .   A
C452       C453 0.029       .   A
C452       N455 0.028       .   A
C453       C454 0.029       .   A
C453       H459 0.024       .   A
C454       O463 0.030       .   A
N455       N464 0.028       .   A
C458       H460 0.024       .   A
C458       H461 0.024       .   A
C458       H462 0.024       .   A
C458       O463 0.031       .   A
N464       N465 0.032       .   A
N465       N466 0.028       .   A
N466       C467 0.028       .   A
C467       C468 0.029       .   A
C467       H470 0.024       .   A
C468       H469 0.024       .   A
C427       C428 0.030       .   A
C427       C432 0.030       .   A
C428       C429 0.029       .   A
C428       H435 0.024       .   A
C429       C430 0.029       .   A
C429       H434 0.024       .   A
C430       C431 0.029       .   A
C430       N433 0.028       .   A
C431       C432 0.029       .   A
C431       H437 0.024       .   A
C432       O441 0.030       .   A
N433       N442 0.028       .   A
C436       H438 0.024       .   A
C436       H439 0.024       .   A
C436       H440 0.024       .   A
C436       O441 0.031       .   A
N442       N443 0.032       .   A
N443       N444 0.028       .   A
N444       C445 0.028       .   A
C445       C446 0.029       .   A
C445       H448 0.024       .   A
C446       H447 0.024       .   A
C405       C406 0.030       .   A
C405       C410 0.030       .   A
C406       C407 0.029       .   A
C406       H413 0.024       .   A
C407       C408 0.029       .   A
C407       H412 0.024       .   A
C408       C409 0.029       .   A
C408       N411 0.028       .   A
C409       C410 0.029       .   A
C409       H415 0.024       .   A
C410       O419 0.030       .   A
N411       N420 0.028       .   A
C414       H416 0.024       .   A
C414       H417 0.024       .   A
C414       H418 0.024       .   A
C414       O419 0.031       .   A
N420       N421 0.032       .   A
N421       N422 0.028       .   A
N422       C423 0.028       .   A
C423       C424 0.029       .   A
C423       H426 0.024       .   A
C424       H425 0.024       .   A
C383       C384 0.030       .   A
C383       C388 0.030       .   A
C384       C385 0.029       .   A
C384       H391 0.024       .   A
C385       C386 0.029       .   A
C385       H390 0.024       .   A
C386       C387 0.029       .   A
C386       N389 0.028       .   A
C387       C388 0.029       .   A
C387       H393 0.024       .   A
C388       O397 0.030       .   A
N389       N398 0.028       .   A
C392       H394 0.024       .   A
C392       H395 0.024       .   A
C392       H396 0.024       .   A
C392       O397 0.031       .   A
N398       N399 0.032       .   A
N399       N400 0.028       .   A
N400       C401 0.028       .   A
C401       C402 0.029       .   A
C401       H404 0.024       .   A
C402       H403 0.024       .   A
C361       C362 0.030       .   A
C361       C366 0.030       .   A
C362       C363 0.029       .   A
C362       H369 0.024       .   A
C363       C364 0.029       .   A
C363       H368 0.024       .   A
C364       C365 0.029       .   A
C364       N367 0.028       .   A
C365       C366 0.029       .   A
C365       H371 0.024       .   A
C366       O375 0.030       .   A
N367       N376 0.028       .   A
C370       H372 0.024       .   A
C370       H373 0.024       .   A
C370       H374 0.024       .   A
C370       O375 0.031       .   A
N376       N377 0.032       .   A
N377       N378 0.028       .   A
N378       C379 0.028       .   A
C379       C380 0.029       .   A
C379       H382 0.024       .   A
C380       H381 0.024       .   A
C339       C340 0.030       .   A
C339       C344 0.030       .   A
C340       C341 0.029       .   A
C340       H347 0.024       .   A
C341       C342 0.029       .   A
C341       H346 0.024       .   A
C342       C343 0.029       .   A
C342       N345 0.028       .   A
C343       C344 0.029       .   A
C343       H349 0.024       .   A
C344       O353 0.030       .   A
N345       N354 0.028       .   A
C348       H350 0.024       .   A
C348       H351 0.024       .   A
C348       H352 0.024       .   A
C348       O353 0.031       .   A
N354       N355 0.032       .   A
N355       N356 0.028       .   A
N356       C357 0.028       .   A
C357       C358 0.029       .   A
C357       H360 0.024       .   A
C358       H359 0.024       .   A
C317       C318 0.030       .   A
C317       C322 0.030       .   A
C318       C319 0.029       .   A
C318       H325 0.024       .   A
C319       C320 0.029       .   A
C319       H324 0.024       .   A
C320       C321 0.029       .   A
C320       N323 0.028       .   A
C321       C322 0.029       .   A
C321       H327 0.024       .   A
C322       O331 0.030       .   A
N323       N332 0.028       .   A
C326       H328 0.024       .   A
C326       H329 0.024       .   A
C326       H330 0.024       .   A
C326       O331 0.031       .   A
N332       N333 0.032       .   A
N333       N334 0.028       .   A
N334       C335 0.028       .   A
C335       C336 0.029       .   A
C335       H338 0.024       .   A
C336       H337 0.024       .   A
C295       C296 0.030       .   A
C295       C300 0.030       .   A
C296       C297 0.029       .   A
C296       H303 0.024       .   A
C297       C298 0.029       .   A
C297       H302 0.024       .   A
C298       C299 0.029       .   A
C298       N301 0.028       .   A
C299       C300 0.029       .   A
C299       H305 0.024       .   A
C300       O309 0.030       .   A
N301       N310 0.028       .   A
C304       H306 0.024       .   A
C304       H307 0.024       .   A
C304       H308 0.024       .   A
C304       O309 0.031       .   A
N310       N311 0.032       .   A
N311       N312 0.028       .   A
N312       C313 0.028       .   A
C313       C314 0.029       .   A
C313       H316 0.024       .   A
C314       H315 0.024       .   A
C273       C274 0.030       .   A
C273       C278 0.030       .   A
C274       C275 0.029       .   A
C274       H281 0.024       .   A
C275       C276 0.029       .   A
C275       H280 0.024       .   A
C276       C277 0.029       .   A
C276       N279 0.028       .   A
C277       C278 0.029       .   A
C277       H283 0.024       .   A
C278       O287 0.030       .   A
N279       N288 0.028       .   A
C282       H284 0.024       .   A
C282       H285 0.024       .   A
C282       H286 0.024       .   A
C282       O287 0.031       .   A
N288       N289 0.032       .   A
N289       N290 0.028       .   A
N290       C291 0.028       .   A
C291       C292 0.029       .   A
C291       H294 0.024       .   A
C292       H293 0.024       .   A
C251       C252 0.030       .   A
C251       C256 0.030       .   A
C252       C253 0.029       .   A
C252       H259 0.024       .   A
C253       C254 0.029       .   A
C253       H258 0.024       .   A
C254       C255 0.029       .   A
C254       N257 0.028       .   A
C255       C256 0.029       .   A
C255       H261 0.024       .   A
C256       O265 0.030       .   A
N257       N266 0.028       .   A
C260       H262 0.024       .   A
C260       H263 0.024       .   A
C260       H264 0.024       .   A
C260       O265 0.031       .   A
N266       N267 0.032       .   A
N267       N268 0.028       .   A
N268       C269 0.028       .   A
C269       C270 0.029       .   A
C269       H272 0.024       .   A
C270       H271 0.024       .   A
C229       C230 0.030       .   A
C229       C234 0.030       .   A
C230       C231 0.029       .   A
C230       H237 0.024       .   A
C231       C232 0.029       .   A
C231       H236 0.024       .   A
C232       C233 0.029       .   A
C232       N235 0.028       .   A
C233       C234 0.029       .   A
C233       H239 0.024       .   A
C234       O243 0.030       .   A
N235       N244 0.028       .   A
C238       H240 0.024       .   A
C238       H241 0.024       .   A
C238       H242 0.024       .   A
C238       O243 0.031       .   A
N244       N245 0.032       .   A
N245       N246 0.028       .   A
N246       C247 0.028       .   A
C247       C248 0.029       .   A
C247       H250 0.024       .   A
C248       H249 0.024       .   A
C207       C208 0.030       .   A
C207       C212 0.030       .   A
C208       C209 0.029       .   A
C208       H215 0.024       .   A
C209       C210 0.029       .   A
C209       H214 0.024       .   A
C210       C211 0.029       .   A
C210       N213 0.028       .   A
C211       C212 0.029       .   A
C211       H217 0.024       .   A
C212       O221 0.030       .   A
N213       N222 0.028       .   A
C216       H218 0.024       .   A
C216       H219 0.024       .   A
C216       H220 0.024       .   A
C216       O221 0.031       .   A
N222       N223 0.032       .   A
N223       N224 0.028       .   A
N224       C225 0.028       .   A
C225       C226 0.029       .   A
C225       H228 0.024       .   A
C226       H227 0.024       .   A
C185       C186 0.030       .   A
C185       C190 0.030       .   A
C186       C187 0.029       .   A
C186       H193 0.024       .   A
C187       C188 0.029       .   A
C187       H192 0.024       .   A
C188       C189 0.029       .   A
C188       N191 0.028       .   A
C189       C190 0.029       .   A
C189       H195 0.024       .   A
C190       O199 0.030       .   A
N191       N200 0.028       .   A
C194       H196 0.024       .   A
C194       H197 0.024       .   A
C194       H198 0.024       .   A
C194       O199 0.031       .   A
N200       N201 0.032       .   A
N201       N202 0.028       .   A
N202       C203 0.028       .   A
C203       C204 0.029       .   A
C203       H206 0.024       .   A
C204       H205 0.024       .   A
