data_pcu_v1-6c_Zn_1_Ch_1-89_fer_tobacco
_audit_creation_date              2021-04-07
_audit_creation_method            'tobacco_3.0'
_symmetry_space_group_name_H-M    'P1'
_symmetry_Int_Tables_number       1
_symmetry_cell_setting            triclinic
loop_
_symmetry_equiv_pos_as_xyz
  x,y,z
_cell_length_a                    41.83287580000041
_cell_length_b                    41.83287580000041
_cell_length_c                    41.83287580000041
_cell_angle_alpha                 90.0
_cell_angle_beta                  90.0
_cell_angle_gamma                 90.0
loop_
_atom_site_label
_atom_site_type_symbol
_atom_site_fract_x
_atom_site_fract_y
_atom_site_fract_z
_atom_site_charge
Zn1       Zn   -0.0268018868   -0.0268018868    0.0268018868          1.4972
Zn2       Zn    0.0268018868    0.0268018868    0.0268018868          1.4936
Zn3       Zn    0.0268018868   -0.0268018868   -0.0268018868          1.4911
Zn4       Zn   -0.0268018868    0.0268018868   -0.0268018868          1.4948
O5         O    0.0000000000    0.0000000000    0.0000000000          -2.225
O6         O   -0.0196974266   -0.0196974266    0.0716326560         -1.1313
O7         O    0.0716326560    0.0196974266    0.0196974266         -1.1295
O8         O    0.0196974266   -0.0716326560   -0.0196974266         -1.1246
O9         O    0.0196974266    0.0196974266    0.0716326560         -1.1314
O10        O   -0.0196974266   -0.0716326560    0.0196974266         -1.1274
O11        O    0.0716326560   -0.0196974266   -0.0196974266         -1.1333
O12        O   -0.0196974266    0.0196974266   -0.0716326560         -1.1272
O13        O    0.0196974266    0.0716326560    0.0196974266         -1.1347
O14        O    0.0196974266   -0.0196974266   -0.0716326560         -1.1286
O15        O   -0.0196974266    0.0716326560   -0.0196974266         -1.1333
O16        O   -0.0716326560    0.0196974266   -0.0196974266         -1.1324
O17        O   -0.0716326560   -0.0196974266    0.0196974266         -1.1303
C18        C   -0.0000000000   -0.0000000000    0.0856455582          0.3876
C19        C    0.0856455582   -0.0000000000   -0.0000000000          0.3925
C20        C   -0.0000000000   -0.0856455582    0.0000000000          0.3821
C21        C    0.0000000000    0.0000000000   -0.0856455582          0.3859
C22        C    0.0000000000    0.0856455582   -0.0000000000          0.3972
C23        C   -0.0856455582    0.0000000000    0.0000000000          0.3877
Zn24      Zn    1.0268018868    0.0268018868    0.4731981132          1.4972
Zn25      Zn    0.9731981132    0.0268018868    0.5268018868          1.4936
Zn26      Zn    0.9731981132   -0.0268018868    0.4731981132          1.4911
Zn27      Zn    1.0268018868   -0.0268018868    0.5268018868          1.4948
O28        O    1.0000000000    0.0000000000    0.5000000000          -2.225
O29        O    1.0196974266    0.0716326560    0.4803025734         -1.1313
O30        O    0.9283673440    0.0196974266    0.5196974266         -1.1295
O31        O    0.9803025734   -0.0196974266    0.4283673440         -1.1246
O32        O    0.9803025734    0.0716326560    0.5196974266         -1.1314
O33        O    1.0196974266    0.0196974266    0.4283673440         -1.1274
O34        O    0.9283673440   -0.0196974266    0.4803025734         -1.1333
O35        O    1.0196974266   -0.0716326560    0.5196974266         -1.1272
O36        O    0.9803025734    0.0196974266    0.5716326560         -1.1347
O37        O    0.9803025734   -0.0716326560    0.4803025734         -1.1286
O38        O    1.0196974266   -0.0196974266    0.5716326560         -1.1333
O39        O    1.0716326560   -0.0196974266    0.5196974266         -1.1324
O40        O    1.0716326560    0.0196974266    0.4803025734         -1.1303
C41        C    1.0000000000    0.0856455582    0.5000000000          0.3876
C42        C    0.9143544418    0.0000000000    0.5000000000          0.3925
C43        C    1.0000000000    0.0000000000    0.4143544418          0.3821
C44        C    1.0000000000   -0.0856455582    0.5000000000          0.3859
C45        C    1.0000000000    0.0000000000    0.5856455582          0.3972
C46        C    1.0856455582    0.0000000000    0.5000000000          0.3877
Zn47      Zn    1.0268018868    0.4731981132   -0.0268018868          1.4972
Zn48      Zn    0.9731981132    0.4731981132    0.0268018868          1.4936
Zn49      Zn    1.0268018868    0.5268018868    0.0268018868          1.4911
Zn50      Zn    0.9731981132    0.5268018868   -0.0268018868          1.4948
O51        O    1.0000000000    0.5000000000    0.0000000000          -2.225
O52        O    1.0196974266    0.4283673440   -0.0196974266         -1.1313
O53        O    0.9803025734    0.4803025734    0.0716326560         -1.1295
O54        O    1.0716326560    0.5196974266    0.0196974266         -1.1246
O55        O    0.9803025734    0.4283673440    0.0196974266         -1.1314
O56        O    1.0716326560    0.4803025734   -0.0196974266         -1.1274
O57        O    1.0196974266    0.5196974266    0.0716326560         -1.1333
O58        O    0.9803025734    0.5716326560   -0.0196974266         -1.1272
O59        O    0.9283673440    0.4803025734    0.0196974266         -1.1347
O60        O    1.0196974266    0.5716326560    0.0196974266         -1.1286
O61        O    0.9283673440    0.5196974266   -0.0196974266         -1.1333
O62        O    0.9803025734    0.5196974266   -0.0716326560         -1.1324
O63        O    1.0196974266    0.4803025734   -0.0716326560         -1.1303
C64        C    1.0000000000    0.4143544418    0.0000000000          0.3876
C65        C    1.0000000000    0.5000000000    0.0856455582          0.3925
C66        C    1.0856455582    0.5000000000    0.0000000000          0.3821
C67        C    1.0000000000    0.5856455582    0.0000000000          0.3859
C68        C    0.9143544418    0.5000000000    0.0000000000          0.3972
C69        C    1.0000000000    0.5000000000   -0.0856455582          0.3877
Zn70      Zn    0.9731981132    0.4731981132    0.5268018868          1.4972
Zn71      Zn    1.0268018868    0.4731981132    0.4731981132          1.4936
Zn72      Zn    0.9731981132    0.5268018868    0.4731981132          1.4911
Zn73      Zn    1.0268018868    0.5268018868    0.5268018868          1.4948
O74        O    1.0000000000    0.5000000000    0.5000000000          -2.225
O75        O    0.9803025734    0.4283673440    0.5196974266         -1.1313
O76        O    1.0196974266    0.4803025734    0.4283673440         -1.1295
O77        O    0.9283673440    0.5196974266    0.4803025734         -1.1246
O78        O    1.0196974266    0.4283673440    0.4803025734         -1.1314
O79        O    0.9283673440    0.4803025734    0.5196974266         -1.1274
O80        O    0.9803025734    0.5196974266    0.4283673440         -1.1333
O81        O    1.0196974266    0.5716326560    0.5196974266         -1.1272
O82        O    1.0716326560    0.4803025734    0.4803025734         -1.1347
O83        O    0.9803025734    0.5716326560    0.4803025734         -1.1286
O84        O    1.0716326560    0.5196974266    0.5196974266         -1.1333
O85        O    1.0196974266    0.5196974266    0.5716326560         -1.1324
O86        O    0.9803025734    0.4803025734    0.5716326560         -1.1303
C87        C    1.0000000000    0.4143544418    0.5000000000          0.3876
C88        C    1.0000000000    0.5000000000    0.4143544418          0.3925
C89        C    0.9143544418    0.5000000000    0.5000000000          0.3821
C90        C    1.0000000000    0.5856455582    0.5000000000          0.3859
C91        C    1.0856455582    0.5000000000    0.5000000000          0.3972
C92        C    1.0000000000    0.5000000000    0.5856455582          0.3877
Zn93      Zn    0.4731981132    0.9731981132   -0.0268018868          1.4972
Zn94      Zn    0.4731981132    1.0268018868    0.0268018868          1.4936
Zn95      Zn    0.5268018868    0.9731981132    0.0268018868          1.4911
Zn96      Zn    0.5268018868    1.0268018868   -0.0268018868          1.4948
O97        O    0.5000000000    1.0000000000    0.0000000000          -2.225
O98        O    0.4283673440    0.9803025734   -0.0196974266         -1.1313
O99        O    0.4803025734    1.0196974266    0.0716326560         -1.1295
O100       O    0.5196974266    0.9283673440    0.0196974266         -1.1246
O101       O    0.4283673440    1.0196974266    0.0196974266         -1.1314
O102       O    0.4803025734    0.9283673440   -0.0196974266         -1.1274
O103       O    0.5196974266    0.9803025734    0.0716326560         -1.1333
O104       O    0.5716326560    1.0196974266   -0.0196974266         -1.1272
O105       O    0.4803025734    1.0716326560    0.0196974266         -1.1347
O106       O    0.5716326560    0.9803025734    0.0196974266         -1.1286
O107       O    0.5196974266    1.0716326560   -0.0196974266         -1.1333
O108       O    0.5196974266    1.0196974266   -0.0716326560         -1.1324
O109       O    0.4803025734    0.9803025734   -0.0716326560         -1.1303
C110       C    0.4143544418    1.0000000000    0.0000000000          0.3876
C111       C    0.5000000000    1.0000000000    0.0856455582          0.3925
C112       C    0.5000000000    0.9143544418    0.0000000000          0.3821
C113       C    0.5856455582    1.0000000000    0.0000000000          0.3859
C114       C    0.5000000000    1.0856455582    0.0000000000          0.3972
C115       C    0.5000000000    1.0000000000   -0.0856455582          0.3877
Zn116     Zn    0.4731981132    1.0268018868    0.5268018868          1.4972
Zn117     Zn    0.4731981132    0.9731981132    0.4731981132          1.4936
Zn118     Zn    0.5268018868    1.0268018868    0.4731981132          1.4911
Zn119     Zn    0.5268018868    0.9731981132    0.5268018868          1.4948
O120       O    0.5000000000    1.0000000000    0.5000000000          -2.225
O121       O    0.4283673440    1.0196974266    0.5196974266         -1.1313
O122       O    0.4803025734    0.9803025734    0.4283673440         -1.1295
O123       O    0.5196974266    1.0716326560    0.4803025734         -1.1246
O124       O    0.4283673440    0.9803025734    0.4803025734         -1.1314
O125       O    0.4803025734    1.0716326560    0.5196974266         -1.1274
O126       O    0.5196974266    1.0196974266    0.4283673440         -1.1333
O127       O    0.5716326560    0.9803025734    0.5196974266         -1.1272
O128       O    0.4803025734    0.9283673440    0.4803025734         -1.1347
O129       O    0.5716326560    1.0196974266    0.4803025734         -1.1286
O130       O    0.5196974266    0.9283673440    0.5196974266         -1.1333
O131       O    0.5196974266    0.9803025734    0.5716326560         -1.1324
O132       O    0.4803025734    1.0196974266    0.5716326560         -1.1303
C133       C    0.4143544418    1.0000000000    0.5000000000          0.3876
C134       C    0.5000000000    1.0000000000    0.4143544418          0.3925
C135       C    0.5000000000    1.0856455582    0.5000000000          0.3821
C136       C    0.5856455582    1.0000000000    0.5000000000          0.3859
C137       C    0.5000000000    0.9143544418    0.5000000000          0.3972
C138       C    0.5000000000    1.0000000000    0.5856455582          0.3877
Zn139     Zn    0.4731981132    0.5268018868   -0.0268018868          1.4972
Zn140     Zn    0.4731981132    0.4731981132    0.0268018868          1.4936
Zn141     Zn    0.5268018868    0.4731981132   -0.0268018868          1.4911
Zn142     Zn    0.5268018868    0.5268018868    0.0268018868          1.4948
O143       O    0.5000000000    0.5000000000    0.0000000000          -2.225
O144       O    0.4283673440    0.5196974266   -0.0196974266         -1.1313
O145       O    0.4803025734    0.4283673440    0.0196974266         -1.1295
O146       O    0.5196974266    0.4803025734   -0.0716326560         -1.1246
O147       O    0.4283673440    0.4803025734    0.0196974266         -1.1314
O148       O    0.4803025734    0.5196974266   -0.0716326560         -1.1274
O149       O    0.5196974266    0.4283673440   -0.0196974266         -1.1333
O150       O    0.5716326560    0.5196974266    0.0196974266         -1.1272
O151       O    0.4803025734    0.4803025734    0.0716326560         -1.1347
O152       O    0.5716326560    0.4803025734   -0.0196974266         -1.1286
O153       O    0.5196974266    0.5196974266    0.0716326560         -1.1333
O154       O    0.5196974266    0.5716326560    0.0196974266         -1.1324
O155       O    0.4803025734    0.5716326560   -0.0196974266         -1.1303
C156       C    0.4143544418    0.5000000000    0.0000000000          0.3876
C157       C    0.5000000000    0.4143544418    0.0000000000          0.3925
C158       C    0.5000000000    0.5000000000   -0.0856455582          0.3821
C159       C    0.5856455582    0.5000000000    0.0000000000          0.3859
C160       C    0.5000000000    0.5000000000    0.0856455582          0.3972
C161       C    0.5000000000    0.5856455582    0.0000000000          0.3877
Zn162     Zn    0.5268018868    0.4731981132    0.5268018868          1.4972
Zn163     Zn    0.4731981132    0.4731981132    0.4731981132          1.4936
Zn164     Zn    0.4731981132    0.5268018868    0.5268018868          1.4911
Zn165     Zn    0.5268018868    0.5268018868    0.4731981132          1.4948
O166       O    0.5000000000    0.5000000000    0.5000000000          -2.225
O167       O    0.5196974266    0.4283673440    0.5196974266         -1.1313
O168       O    0.4283673440    0.4803025734    0.4803025734         -1.1295
O169       O    0.4803025734    0.5196974266    0.5716326560         -1.1246
O170       O    0.4803025734    0.4283673440    0.4803025734         -1.1314
O171       O    0.5196974266    0.4803025734    0.5716326560         -1.1274
O172       O    0.4283673440    0.5196974266    0.5196974266         -1.1333
O173       O    0.5196974266    0.5716326560    0.4803025734         -1.1272
O174       O    0.4803025734    0.4803025734    0.4283673440         -1.1347
O175       O    0.4803025734    0.5716326560    0.5196974266         -1.1286
O176       O    0.5196974266    0.5196974266    0.4283673440         -1.1333
O177       O    0.5716326560    0.5196974266    0.4803025734         -1.1324
O178       O    0.5716326560    0.4803025734    0.5196974266         -1.1303
C179       C    0.5000000000    0.4143544418    0.5000000000          0.3876
C180       C    0.4143544418    0.5000000000    0.5000000000          0.3925
C181       C    0.5000000000    0.5000000000    0.5856455582          0.3821
C182       C    0.5000000000    0.5856455582    0.5000000000          0.3859
C183       C    0.5000000000    0.5000000000    0.4143544418          0.3972
C184       C    0.5856455582    0.5000000000    0.5000000000          0.3877
C691       C    0.5000000000    0.5000000000   -0.3775412901         -0.3856
C692       C    0.4990265580    0.5280529190   -0.3612062954         -0.3866
C693       C    0.4980820488    0.5278294622   -0.3291742632          0.6126
C694       C    0.4980998860    0.5005184107   -0.3127912525          0.6127
C695       C    0.4992662490    0.4729747365   -0.3286998366         -0.3865
C696       C    0.5001947806    0.4727528485   -0.3605210610         -0.3856
C697       C    0.4968991882    0.5005957764   -0.2815462341          0.6122
H698       H    0.4972750683    0.5505459321   -0.3163876262          0.6118
Cl699     Cl    0.4989562660    0.5660220486   -0.3778413206          0.6129
H700       H    0.5010099386    0.4496910791   -0.3723693728         -0.3849
H701       H    0.4994056387    0.4503663835   -0.3157745697         -0.3864
C702       C    0.4965804719    0.4914145229   -0.2538447705          0.6114
N703       N    0.4991426582    0.4869396186   -0.2225897732          0.6077
N704       N    0.4727806062    0.4900686208   -0.2073758140         -0.3699
C705       C    0.4823087297    0.5061251394   -0.1772989716         -0.3804
C706       C    0.4883833123    0.4820531005   -0.1502528303         -0.3862
N707       N    0.5000000000    0.5000000000   -0.1224587099          0.6014
N708       N    0.5147868773    0.5154934529   -0.1379977083          0.5886
N709       N    0.4954817815    0.5235025917   -0.1624096876          0.6066
H710       H    0.4662651533    0.4694069945   -0.1443370652         -0.3665
H711       H    0.5060305089    0.4639878468   -0.1575719684          0.5992
H712       H    0.4641746172    0.5239364410   -0.1705022928         -0.3654
C669       C    0.5000000000    0.5000000000    0.1224587099         -0.3856
C670       C    0.4719319021    0.5003094132    0.1387937046         -0.3866
C671       C    0.4721119676    0.4993556799    0.1708257368          0.6126
C672       C    0.4993953078    0.4981255587    0.1872087475          0.6127
C673       C    0.5269635079    0.4980321343    0.1713001634         -0.3865
C674       C    0.5272275922    0.4989495572    0.1394789390         -0.3856
C675       C    0.4992631587    0.4969296501    0.2184537659          0.6122
H676       H    0.4493823511    0.4995875391    0.1836123738          0.6118
Cl677     Cl    0.4339992193    0.5019741401    0.1221586794          0.6129
H678       H    0.5503025210    0.4987100889    0.1276306272         -0.3849
H679       H    0.5495546158    0.4971383218    0.1842254303         -0.3864
C680       C    0.5084202592    0.4961917424    0.2461552295          0.6114
N681       N    0.5130075648    0.4985467781    0.2774102268          0.6077
N682       N    0.5086772543    0.4723552365    0.2926241860         -0.3699
C683       C    0.4930728808    0.4826070878    0.3227010284         -0.3804
C684       C    0.5173973459    0.4875753878    0.3497471697         -0.3862
N685       N    0.5000000000    0.5000000000    0.3775412901          0.6014
N686       N    0.4851983953    0.5154793838    0.3620022917          0.5886
N687       N    0.4763155031    0.4965604184    0.3375903124          0.6066
H688       H    0.5290195852    0.4649024853    0.3556629348         -0.3665
H689       H    0.5362500942    0.5043786858    0.3424280316          0.5992
H690       H    0.4744515705    0.4653057784    0.3294977072         -0.3654
C647       C    0.5000000000    0.8775412901    0.5000000000         -0.3856
C648       C    0.5050572306    0.8612062954    0.5276104740         -0.3866
C649       C    0.5040867796    0.8291742632    0.5275944874          0.6126
C650       C    0.4982550032    0.8127912525    0.5009133285          0.6127
C651       C    0.4934952821    0.8286998366    0.4737589653         -0.3865
C652       C    0.4943547468    0.8605210610    0.4733433625         -0.3856
C653       C    0.4970987352    0.7815462341    0.5012460522          0.6122
H654       H    0.5081637034    0.8163876262    0.5499566857          0.6118
Cl655     Cl    0.5131204066    0.8778413206    0.5647136401          0.6129
H656       H    0.4902118580    0.8723693728    0.4506421256         -0.3849
H657       H    0.4887894133    0.8157745697    0.4516453529         -0.3864
C658       C    0.4948210680    0.7538447705    0.4923460955          0.6114
N659       N    0.4963654136    0.7225897732    0.4874262822          0.6077
N660       N    0.4712851918    0.7073758140    0.4961286332         -0.3699
C661       C    0.4840310490    0.6772989716    0.5097719485         -0.3804
C662       C    0.4848091784    0.6502528303    0.4849574745         -0.3862
N663       N    0.5000000000    0.6224587099    0.5000000000          0.6014
N664       N    0.5177619976    0.6379977083    0.5119670490          0.5886
N665       N    0.5006201632    0.6624096876    0.5239249141          0.6066
H666       H    0.4604958261    0.6443370652    0.4773418422         -0.3665
H667       H    0.4981778678    0.6575719684    0.4635319037          0.5992
H668       H    0.4701323529    0.6705022928    0.5310537425         -0.3654
C625       C    0.5000000000    1.1224587099    0.5000000000         -0.3856
C626       C    0.5275617800    1.1387937046    0.5053162146         -0.3866
C627       C    0.5275549047    1.1708257368    0.5043456563          0.6126
C628       C    0.5009296703    1.1872087475    0.4982636544          0.6127
C629       C    0.4738211880    1.1713001634    0.4932492182         -0.3865
C630       C    0.4733975348    1.1394789390    0.4941047433         -0.3856
C631       C    0.5012732344    1.2184537659    0.4971105610          0.6122
H632       H    0.5498778435    1.1836123738    0.5086323365          0.6118
Cl633     Cl    0.5645876140    1.1221586794    0.5137273594          0.6129
H634       H    0.4507361916    1.1276306272    0.4897489181         -0.3849
H635       H    0.4517527287    1.1842254303    0.4883359544         -0.3864
C636       C    0.4923950526    1.2461552295    0.4947494415          0.6114
N637       N    0.4874609578    1.2774102268    0.4962475319          0.6077
N638       N    0.4963983782    1.2926241860    0.4712501129         -0.3699
C639       C    0.5099214343    1.3227010284    0.4841234916         -0.3804
C640       C    0.4851007487    1.3497471697    0.4846686288         -0.3862
N641       N    0.5000000000    1.3775412901    0.5000000000          0.6014
N642       N    0.5117997722    1.3620022917    0.5178735614          0.5886
N643       N    0.5239180377    1.3375903124    0.5008447427          0.6066
H644       H    0.4777137055    1.3556629348    0.4602848524         -0.3665
H645       H    0.4635506169    1.3424280316    0.4978355860          0.5992
H646       H    0.5313327712    1.3294977072    0.4704252014         -0.3654
C603       C    0.5000000000    0.8775412901    0.0000000000         -0.3856
C604       C    0.4887275822    0.8612062954   -0.0257069340         -0.3866
C605       C    0.4896756900    0.8291742632   -0.0259145929          0.6126
C606       C    0.5014881310    0.8127912525   -0.0012902129          0.6127
C607       C    0.5123661046    0.8286998366    0.0240412711         -0.3865
C608       C    0.5116252787    0.8605210610    0.0246434190         -0.3856
C609       C    0.5025368654    0.7815462341   -0.0018799727          0.6122
H610       H    0.4805644693    0.8163876262   -0.0467394550          0.6118
Cl611     Cl    0.4723463679    0.8778413206   -0.0599606280          0.6129
H612       H    0.5208786792    0.8723693728    0.0457830564         -0.3849
H613       H    0.5220322285    0.8157745697    0.0444795465         -0.3864
C614       C    0.5068005736    0.7538447705    0.0062574587          0.6114
N615       N    0.5064292598    0.7225897732    0.0114005796          0.6077
N616       N    0.5288353569    0.7073758140   -0.0028372311         -0.3699
C617       C    0.5132931011    0.6772989716   -0.0131830133         -0.3804
C618       C    0.5182435019    0.6502528303    0.0111451009         -0.3862
N619       N    0.5000000000    0.6224587099    0.0000000000          0.6014
N620       N    0.4799616634    0.6379977083   -0.0075606804          0.5886
N621       N    0.4938934093    0.6624096876   -0.0231407793          0.6066
H622       H    0.5436566494    0.6443370652    0.0129641366         -0.3665
H623       H    0.5101614344    0.6575719684    0.0350711772          0.5992
H624       H    0.5219240349    0.6705022928   -0.0370910765         -0.3654
C581       C    0.5000000000    1.1224587099    0.0000000000         -0.3856
C582       C    0.5242332621    1.1387937046   -0.0141655520         -0.3866
C583       C    0.5235884663    1.1708257368   -0.0148909959          0.6126
C584       C    0.4995549226    1.1872087475   -0.0019186164          0.6127
C585       C    0.4758614744    1.1713001634    0.0121751729         -0.3865
C586       C    0.4761066517    1.1394789390    0.0130978285         -0.3856
C587       C    0.4990534030    1.2184537659   -0.0030122977          0.6122
H588       H    0.5432030064    1.1836123738   -0.0263783385          0.6118
Cl589     Cl    0.5576242608    1.1221586794   -0.0322404227          0.6129
H590       H    0.4561920228    1.1276306272    0.0247561837         -0.3849
H591       H    0.4560253971    1.1842254303    0.0230235412         -0.3864
C592       C    0.4908199136    1.2461552295    0.0010628278          0.6114
N593       N    0.4880961718    1.2774102268    0.0054412747          0.6077
N594       N    0.4783441813    1.2926241860   -0.0192497586         -0.3699
C595       C    0.4969990374    1.3227010284   -0.0184795184         -0.3804
C596       C    0.4786901967    1.3497471697   -0.0017119915         -0.3862
N597       N    0.5000000000    1.3775412901    0.0000000000          0.6014
N598       N    0.5206540010    1.3620022917    0.0056666628          0.5886
N599       N    0.5185459117    1.3375903124   -0.0151273023          0.6066
H600       H    0.4570646797    1.3556629348   -0.0151832191         -0.3665
H601       H    0.4711593294    1.3424280316    0.0223932565          0.5992
H602       H    0.5040753512    1.3294977072   -0.0428929222         -0.3654
C559       C    0.5000000000    1.0000000000   -0.3775412901         -0.3856
C560       C    0.5009734420    0.9719470810   -0.3612062954         -0.3866
C561       C    0.5019179512    0.9721705378   -0.3291742632          0.6126
C562       C    0.5019001140    0.9994815893   -0.3127912525          0.6127
C563       C    0.5007337510    1.0270252635   -0.3286998366         -0.3865
C564       C    0.4998052194    1.0272471515   -0.3605210610         -0.3856
C565       C    0.5031008118    0.9994042236   -0.2815462341          0.6122
H566       H    0.5027249317    0.9494540679   -0.3163876262          0.6118
Cl567     Cl    0.5010437340    0.9339779514   -0.3778413206          0.6129
H568       H    0.4989900614    1.0503089209   -0.3723693728         -0.3849
H569       H    0.5005943613    1.0496336165   -0.3157745697         -0.3864
C570       C    0.5034195281    1.0085854771   -0.2538447705          0.6114
N571       N    0.5008573418    1.0130603814   -0.2225897732          0.6077
N572       N    0.5272193938    1.0099313792   -0.2073758140         -0.3699
C573       C    0.5176912703    0.9938748606   -0.1772989716         -0.3804
C574       C    0.5116166877    1.0179468995   -0.1502528303         -0.3862
N575       N    0.5000000000    1.0000000000   -0.1224587099          0.6014
N576       N    0.4852131227    0.9845065471   -0.1379977083          0.5886
N577       N    0.5045182185    0.9764974083   -0.1624096876          0.6066
H578       H    0.5337348467    1.0305930055   -0.1443370652         -0.3665
H579       H    0.4939694911    1.0360121532   -0.1575719684          0.5992
H580       H    0.5358253828    0.9760635590   -0.1705022928         -0.3654
C537       C    0.5000000000    1.0000000000    0.1224587099         -0.3856
C538       C    0.5280680979    0.9996905868    0.1387937046         -0.3866
C539       C    0.5278880324    1.0006443201    0.1708257368          0.6126
C540       C    0.5006046922    1.0018744413    0.1872087475          0.6127
C541       C    0.4730364921    1.0019678657    0.1713001634         -0.3865
C542       C    0.4727724078    1.0010504428    0.1394789390         -0.3856
C543       C    0.5007368413    1.0030703499    0.2184537659          0.6122
H544       H    0.5506176489    1.0004124609    0.1836123738          0.6118
Cl545     Cl    0.5660007807    0.9980258599    0.1221586794          0.6129
H546       H    0.4496974790    1.0012899111    0.1276306272         -0.3849
H547       H    0.4504453842    1.0028616782    0.1842254303         -0.3864
C548       C    0.4915797408    1.0038082576    0.2461552295          0.6114
N549       N    0.4869924352    1.0014532219    0.2774102268          0.6077
N550       N    0.4913227457    1.0276447635    0.2926241860         -0.3699
C551       C    0.5069271192    1.0173929122    0.3227010284         -0.3804
C552       C    0.4826026541    1.0124246122    0.3497471697         -0.3862
N553       N    0.5000000000    1.0000000000    0.3775412901          0.6014
N554       N    0.5148016047    0.9845206162    0.3620022917          0.5886
N555       N    0.5236844969    1.0034395816    0.3375903124          0.6066
H556       H    0.4709804148    1.0350975147    0.3556629348         -0.3665
H557       H    0.4637499058    0.9956213142    0.3424280316          0.5992
H558       H    0.5255484295    1.0346942216    0.3294977072         -0.3654
C515       C    0.8775412901    0.5000000000    0.5000000000         -0.3856
C516       C    0.8612062954    0.4855313517    0.5240535252         -0.3866
C517       C    0.8291742632    0.4864451011    0.5243807755          0.6126
C518       C    0.8127912525    0.5013108362    0.5014699971          0.6127
C519       C    0.8286998366    0.5153402478    0.4777383727         -0.3865
C520       C    0.8605210610    0.5146825467    0.4770463940         -0.3856
C521       C    0.7815462341    0.5022755005    0.5021890822          0.6122
H522       H    0.8163876262    0.4747444866    0.5438688448          0.6118
Cl523     Cl    0.8778413206    0.4649024439    0.5559299726          0.6129
H524       H    0.8723693728    0.5265644439    0.4572643262         -0.3849
H525       H    0.8157745697    0.5275417469    0.4587047057         -0.3864
C526       C    0.7538447705    0.5075452481    0.4946640070          0.6114
N527       N    0.7225897732    0.5078349802    0.4895156459          0.6077
N528       N    0.7073758140    0.5282354108    0.5065030198         -0.3699
C529       C    0.6772989716    0.5114972697    0.5147753567         -0.3804
C530       C    0.6502528303    0.5195194514    0.4912805018         -0.3862
N531       N    0.6224587099    0.5000000000    0.5000000000          0.6014
N532       N    0.6379977083    0.4791590426    0.5049349079          0.5886
N533       N    0.6624096876    0.4909830334    0.5221693579          0.6066
H534       H    0.6443370652    0.5449564835    0.4927276919         -0.3665
H535       H    0.6575719684    0.5145648262    0.4665170483          0.5992
H536       H    0.6705022928    0.5169985555    0.5395911654         -0.3654
C493       C    1.1224587099    0.5000000000    0.5000000000         -0.3856
C494       C    1.1387937046    0.5166383893    0.4773929688         -0.3866
C495       C    1.1708257368    0.5172919086    0.4781105642          0.6126
C496       C    1.1872087475    0.5018610881    0.5006446192          0.6127
C497       C    1.1713001634    0.4853509009    0.5227223931         -0.3865
C498       C    1.1394789390    0.4844591894    0.5223814301         -0.3856
C499       C    1.2184537659    0.5028958838    0.5012585073          0.6122
H500       H    1.1836123738    0.5307806593    0.4598145858          0.6118
Cl501     Cl    1.1221586794    0.5381286070    0.4460907280          0.6129
H502       H    1.1276306272    0.4707687796    0.5409578228         -0.3849
H503       H    1.1842254303    0.4724742464    0.5413059565         -0.3864
C504       C    1.2461552295    0.4979764864    0.5090171494          0.6114
N505       N    1.2774102268    0.4933355886    0.5112647333          0.6077
N506       N    1.2926241860    0.5168625609    0.5235622947         -0.3699
C507       C    1.3227010284    0.5180608176    0.5049300348         -0.3804
C508       C    1.3497471697    0.4994587138    0.5213716083         -0.3862
N509       N    1.3775412901    0.5000000000    0.5000000000          0.6014
N510       N    1.3620022917    0.4965395467    0.4788641516          0.5886
N511       N    1.3375903124    0.5169959586    0.4831499701          0.6066
H512       H    1.3556629348    0.5105780554    0.5442953340         -0.3665
H513       H    1.3424280316    0.4746945162    0.5263225133          0.5992
H514       H    1.3294977072    0.5430835971    0.5004636030         -0.3654
C471       C    0.6224587099    0.5000000000    0.0000000000         -0.3856
C472       C    0.6387937046    0.5017663527    0.0280141724         -0.3866
C473       C    0.6708257368    0.5008045566    0.0278838697          0.6126
C474       C    0.6872087475    0.4981594840    0.0007012016          0.6127
C475       C    0.6713001634    0.4966347845   -0.0268249619         -0.3865
C476       C    0.6394789390    0.4975372581   -0.0271363245         -0.3856
C477       C    0.7184537659    0.4969720500    0.0008952667          0.6122
H478       H    0.6836123738    0.5022162744    0.0505707883          0.6118
Cl479     Cl    0.6221586794    0.5053983819    0.0658092528          0.6129
H480       H    0.6276306272    0.4961000121   -0.0501676947         -0.3849
H481       H    0.6842254303    0.4945691980   -0.0493391887         -0.3864
C482       C    0.7461552295    0.4957596810   -0.0082111683          0.6114
N483       N    0.7774102268    0.4978733572   -0.0129145649          0.6077
N484       N    0.7926241860    0.4719419836   -0.0072301734         -0.3699
C485       C    0.8227010284    0.4829902197    0.0078208534         -0.3804
C486       C    0.8497471697    0.4866888387   -0.0167287662         -0.3862
N487       N    0.8775412901    0.5000000000    0.0000000000          0.6014
N488       N    0.8620022917    0.5162270358    0.0139779159          0.5886
N489       N    0.8375903124    0.4977948088    0.0238311403          0.6066
H490       H    0.8556629348    0.4634430669   -0.0271581021         -0.3665
H491       H    0.8424280316    0.5024905955   -0.0364285486          0.5992
H492       H    0.8294977072    0.4666791065    0.0273153679         -0.3654
C449       C    1.1224587099    0.5000000000    0.0000000000         -0.3856
C450       C    1.1387937046    0.5242512828   -0.0141346785         -0.3866
C451       C    1.1708257368    0.5245658676   -0.0132164916          0.6126
C452       C    1.1872087475    0.5014517317    0.0013310365          0.6127
C453       C    1.1713001634    0.4775283921    0.0150309712         -0.3865
C454       C    1.1394789390    0.4768455736    0.0143637650         -0.3856
C455       C    1.2184537659    0.5021574097    0.0023055513          0.6122
H456       H    1.1836123738    0.5442138576   -0.0246465272          0.6118
Cl457     Cl    1.1221586794    0.5564099177   -0.0343208605          0.6129
H458       H    1.1276306272    0.4569011067    0.0259710009         -0.3849
H459       H    1.1842254303    0.4583278353    0.0269681265         -0.3864
C460       C    1.2461552295    0.4945601894    0.0074707463          0.6114
N461       N    1.2774102268    0.4894083143    0.0076892647          0.6077
N462       N    1.2926241860    0.5061119888    0.0283226284         -0.3699
C463       C    1.3227010284    0.5146149722    0.0117004685         -0.3804
C464       C    1.3497471697    0.4910114411    0.0193970215         -0.3862
N465       N    1.3775412901    0.5000000000    0.0000000000          0.6014
N466       N    1.3620022917    0.5052226028   -0.0207707304          0.5886
N467       N    1.3375903124    0.5222919156   -0.0087095703          0.6066
H468       H    1.3556629348    0.4921067765    0.0448516320         -0.3665
H469       H    1.3424280316    0.4663188622    0.0141004671          0.5992
H470       H    1.3294977072    0.5393523426    0.0175443551         -0.3654
C427       C    1.0000000000    0.5000000000   -0.3775412901         -0.3856
C428       C    1.0280680979    0.4996905868   -0.3612062954         -0.3866
C429       C    1.0278880324    0.5006443201   -0.3291742632          0.6126
C430       C    1.0006046922    0.5018744413   -0.3127912525          0.6127
C431       C    0.9730364921    0.5019678657   -0.3286998366         -0.3865
C432       C    0.9727724078    0.5010504428   -0.3605210610         -0.3856
C433       C    1.0007368413    0.5030703499   -0.2815462341          0.6122
H434       H    1.0506176489    0.5004124609   -0.3163876262          0.6118
Cl435     Cl    1.0660007807    0.4980258599   -0.3778413206          0.6129
H436       H    0.9496974790    0.5012899111   -0.3723693728         -0.3849
H437       H    0.9504453842    0.5028616782   -0.3157745697         -0.3864
C438       C    0.9915797408    0.5038082576   -0.2538447705          0.6114
N439       N    0.9869924352    0.5014532219   -0.2225897732          0.6077
N440       N    0.9913227457    0.5276447635   -0.2073758140         -0.3699
C441       C    1.0069271192    0.5173929122   -0.1772989716         -0.3804
C442       C    0.9826026541    0.5124246122   -0.1502528303         -0.3862
N443       N    1.0000000000    0.5000000000   -0.1224587099          0.6014
N444       N    1.0148016047    0.4845206162   -0.1379977083          0.5886
N445       N    1.0236844969    0.5034395816   -0.1624096876          0.6066
H446       H    0.9709804148    0.5350975147   -0.1443370652         -0.3665
H447       H    0.9637499058    0.4956213142   -0.1575719684          0.5992
H448       H    1.0255484295    0.5346942216   -0.1705022928         -0.3654
C405       C    1.0000000000    0.5000000000    0.1224587099         -0.3856
C406       C    0.9719319021    0.5003094132    0.1387937046         -0.3866
C407       C    0.9721119676    0.4993556799    0.1708257368          0.6126
C408       C    0.9993953078    0.4981255587    0.1872087475          0.6127
C409       C    1.0269635079    0.4980321343    0.1713001634         -0.3865
C410       C    1.0272275922    0.4989495572    0.1394789390         -0.3856
C411       C    0.9992631587    0.4969296501    0.2184537659          0.6122
H412       H    0.9493823511    0.4995875391    0.1836123738          0.6118
Cl413     Cl    0.9339992193    0.5019741401    0.1221586794          0.6129
H414       H    1.0503025210    0.4987100889    0.1276306272         -0.3849
H415       H    1.0495546158    0.4971383218    0.1842254303         -0.3864
C416       C    1.0084202592    0.4961917424    0.2461552295          0.6114
N417       N    1.0130075648    0.4985467781    0.2774102268          0.6077
N418       N    1.0086772543    0.4723552365    0.2926241860         -0.3699
C419       C    0.9930728808    0.4826070878    0.3227010284         -0.3804
C420       C    1.0173973459    0.4875753878    0.3497471697         -0.3862
N421       N    1.0000000000    0.5000000000    0.3775412901          0.6014
N422       N    0.9851983953    0.5154793838    0.3620022917          0.5886
N423       N    0.9763155031    0.4965604184    0.3375903124          0.6066
H424       H    1.0290195852    0.4649024853    0.3556629348         -0.3665
H425       H    1.0362500942    0.5043786858    0.3424280316          0.5992
H426       H    0.9744515705    0.4653057784    0.3294977072         -0.3654
C383       C    1.0000000000   -0.1224587099    0.5000000000         -0.3856
C384       C    1.0280680979   -0.1387937046    0.4996905868         -0.3866
C385       C    1.0278880324   -0.1708257368    0.5006443201          0.6126
C386       C    1.0006046922   -0.1872087475    0.5018744413          0.6127
C387       C    0.9730364921   -0.1713001634    0.5019678657         -0.3865
C388       C    0.9727724078   -0.1394789390    0.5010504428         -0.3856
C389       C    1.0007368413   -0.2184537659    0.5030703499          0.6122
H390       H    1.0506176489   -0.1836123738    0.5004124609          0.6118
Cl391     Cl    1.0660007807   -0.1221586794    0.4980258599          0.6129
H392       H    0.9496974790   -0.1276306272    0.5012899111         -0.3849
H393       H    0.9504453842   -0.1842254303    0.5028616782         -0.3864
C394       C    0.9915797408   -0.2461552295    0.5038082576          0.6114
N395       N    0.9869924352   -0.2774102268    0.5014532219          0.6077
N396       N    0.9913227457   -0.2926241860    0.5276447635         -0.3699
C397       C    1.0069271192   -0.3227010284    0.5173929122         -0.3804
C398       C    0.9826026541   -0.3497471697    0.5124246122         -0.3862
N399       N    1.0000000000   -0.3775412901    0.5000000000          0.6014
N400       N    1.0148016047   -0.3620022917    0.4845206162          0.5886
N401       N    1.0236844969   -0.3375903124    0.5034395816          0.6066
H402       H    0.9709804148   -0.3556629348    0.5350975147         -0.3665
H403       H    0.9637499058   -0.3424280316    0.4956213142          0.5992
H404       H    1.0255484295   -0.3294977072    0.5346942216         -0.3654
C361       C    1.0000000000    0.3775412901    0.5000000000         -0.3856
C362       C    1.0118571985    0.3612062954    0.4745575021         -0.3866
C363       C    1.0126393125    0.3291742632    0.4751322442          0.6126
C364       C    1.0019516235    0.3127912525    0.5002652335          0.6127
C365       C    0.9901158178    0.3286998366    0.5251635887         -0.3865
C366       C    0.9891744013    0.3605210610    0.5250050319         -0.3856
C367       C    1.0030871009    0.2815462341    0.5006631676          0.6122
H368       H    1.0222581673    0.3163876262    0.4545369327          0.6118
Cl369     Cl    1.0267576123    0.3778413206    0.4396341946          0.6129
H370       H    0.9794131000    0.3723693728    0.5459149980         -0.3849
H371       H    0.9811537283    0.3157745697    0.5459202264         -0.3864
C372       C    0.9997930820    0.2538447705    0.5092390895          0.6114
N373       N    0.9956860937    0.2225897732    0.5123571360          0.6077
N374       N    1.0211750914    0.2073758140    0.5197773404         -0.3699
C375       C    1.0186781832    0.1772989716    0.5012743034         -0.3804
C376       C    1.0036808119    0.1502528303    0.5210592084         -0.3862
N377       N    1.0000000000    0.1224587099    0.5000000000          0.6014
N378       N    0.9924423756    0.1379977083    0.4799605106          0.5886
N379       N    1.0133422298    0.1624096876    0.4801311545          0.6066
H380       H    1.0190994639    0.1443370652    0.5413422586         -0.3665
H381       H    0.9803778280    0.1575719684    0.5307930606          0.5992
H382       H    1.0423301488    0.1705022928    0.4919644685         -0.3654
C339       C    0.8775412901   -0.0000000000    0.5000000000         -0.3856
C340       C    0.8612062954    0.0268976777    0.5080267547         -0.3866
C341       C    0.8291742632    0.0269872102    0.5070603104          0.6126
C342       C    0.8127912525    0.0010974904    0.4983645496          0.6127
C343       C    0.8286998366   -0.0253790958    0.4906830931         -0.3865
C344       C    0.8605210610   -0.0258856066    0.4914923224         -0.3856
C345       C    0.7815462341    0.0015538556    0.4972512701          0.6122
H346       H    0.8163876262    0.0487741682    0.5135424155          0.6118
Cl347     Cl    0.8778413206    0.0629053174    0.5200729002          0.6129
H348       H    0.8723693728   -0.0480024305    0.4849078114         -0.3849
H349       H    0.8157745697   -0.0468506138    0.4836027703         -0.3864
C350       C    0.7538447705   -0.0070459952    0.4940202390          0.6114
N351       N    0.7225897732   -0.0121044613    0.4950209827          0.6077
N352       N    0.7073758140   -0.0007290319    0.4710345688         -0.3699
C353       C    0.6772989716    0.0114488970    0.4851871295         -0.3804
C354       C    0.6502528303   -0.0133032504    0.4832649421         -0.3862
N355       N    0.6224587099   -0.0000000000    0.5000000000          0.6014
N356       N    0.6379977083    0.0099666566    0.5189569138          0.5886
N357       N    0.6624096876    0.0237159491    0.5032155675          0.6066
H358       H    0.6443370652   -0.0182325390    0.4582681609         -0.3665
H359       H    0.6575719684   -0.0360543221    0.4942269528          0.5992
H360       H    0.6705022928    0.0341146198    0.4736826297         -0.3654
C317       C    1.1224587099   -0.0000000000    0.5000000000         -0.3856
C318       C    1.1387937046    0.0279774778    0.4977252265         -0.3866
C319       C    1.1708257368    0.0278646619    0.4986892302          0.6126
C320       C    1.1872087475    0.0007345081    0.5018274794          0.6127
C321       C    1.1713001634   -0.0267594294    0.5038517777         -0.3865
C322       C    1.1394789390   -0.0270871288    0.5029551070         -0.3856
C323       C    1.2184537659    0.0009501039    0.5030111935          0.6122
H324       H    1.1836123738    0.0505222042    0.4968657713          0.6118
Cl325     Cl    1.1221586794    0.0657003718    0.4934074717          0.6129
H326       H    1.1276306272   -0.0500886023    0.5048103448         -0.3849
H327       H    1.1842254303   -0.0492324347    0.5063258616         -0.3864
C328       C    1.2461552295   -0.0081328140    0.5043887272          0.6114
N329       N    1.2774102268   -0.0128738175    0.5023608090          0.6077
N330       N    1.2926241860   -0.0067194730    0.5281846833         -0.3699
C331       C    1.3227010284    0.0081284461    0.5168649560         -0.3804
C332       C    1.3497471697   -0.0164842891    0.5136127457         -0.3862
N333       N    1.3775412901   -0.0000000000    0.5000000000          0.6014
N334       N    1.3620022917    0.0136809428    0.4835218136          0.5886
N335       N    1.3375903124    0.0238672551    0.5017720757          0.6066
H336       H    1.3556629348   -0.0264897831    0.5370440718         -0.3665
H337       H    1.3424280316   -0.0364677688    0.4981713247          0.5992
H338       H    1.3294977072    0.0279159411    0.5328193768         -0.3654
C295       C   -0.0000000000   -0.3775412901    0.0000000000         -0.3856
C296       C    0.0127062760   -0.3612062954    0.0250292710         -0.3866
C297       C    0.0134686153   -0.3291742632    0.0244285468          0.6126
C298       C    0.0019415977   -0.3127912525   -0.0003307285          0.6127
C299       C   -0.0107249948   -0.3286998366   -0.0248168842         -0.3865
C300       C   -0.0116605453   -0.3605210610   -0.0246267515         -0.3856
C301       C    0.0030630477   -0.2815462341   -0.0007666305          0.6122
H302       H    0.0237747737   -0.3163876262    0.0446886634          0.6118
Cl303     Cl    0.0287729430   -0.3778413206    0.0594316249          0.6129
H304       H   -0.0221196533   -0.3723693728   -0.0451965533         -0.3849
H305       H   -0.0203801858   -0.3157745697   -0.0452603268         -0.3864
C306       C   -0.0005175681   -0.2538447705   -0.0092269016          0.6114
N307       N   -0.0047271114   -0.2225897732   -0.0122050405          0.6077
N308       N    0.0204978764   -0.2073758140   -0.0204783972         -0.3699
C309       C    0.0186247514   -0.1772989716   -0.0019018440         -0.3804
C310       C    0.0029703790   -0.1502528303   -0.0211711001         -0.3862
N311       N   -0.0000000000   -0.1224587099    0.0000000000          0.6014
N312       N   -0.0068792972   -0.1379977083    0.0202823592          0.5886
N313       N    0.0140029909   -0.1624096876    0.0194088217          0.6066
H314       H    0.0176980631   -0.1443370652   -0.0419612968         -0.3665
H315       H   -0.0206468279   -0.1575719684   -0.0301156224          0.5992
H316       H    0.0425764802   -0.1705022928    0.0066071625         -0.3654
C273       C    0.0000000000    0.1224587099    0.0000000000         -0.3856
C274       C   -0.0080034946    0.1387937046    0.0269046080         -0.3866
C275       C   -0.0070369732    0.1708257368    0.0269933049          0.6126
C276       C    0.0016363987    0.1872087475    0.0010960758          0.6127
C277       C    0.0092949593    0.1713001634   -0.0253871422         -0.3865
C278       C    0.0084852924    0.1394789390   -0.0258929531         -0.3856
C279       C    0.0027500724    0.2184537659    0.0015514784          0.6122
H280       H   -0.0135002377    0.1836123738    0.0487858595          0.6118
Cl281     Cl   -0.0200185014    0.1221586794    0.0629226500          0.6129
H282       H    0.0150506775    0.1276306272   -0.0480154621         -0.3849
H283       H    0.0163567140    0.1842254303   -0.0468647742         -0.3864
C284       C    0.0059736664    0.2461552295   -0.0070511630          0.6114
N285       N    0.0049685493    0.2774102268   -0.0121087619          0.6077
N286       N    0.0289647900    0.2926241860   -0.0007540767         -0.3699
C287       C    0.0148227643    0.3227010284    0.0114360847         -0.3804
C288       C    0.0167235489    0.3497471697   -0.0133177155         -0.3862
N289       N    0.0000000000    0.3775412901    0.0000000000          0.6014
N290       N   -0.0189482890    0.3620022917    0.0099830440          0.5886
N291       N   -0.0031950602    0.3375903124    0.0237187206          0.6066
H292       H    0.0417160586    0.3556629348   -0.0182686157         -0.3665
H293       H    0.0057418705    0.3424280316   -0.0360593003          0.5992
H294       H    0.0263468577    0.3294977072    0.0340918517         -0.3654
C251       C   -0.3775412901   -0.0000000000    0.0000000000         -0.3856
C252       C   -0.3612062954   -0.0271307987    0.0071995568         -0.3866
C253       C   -0.3291742632   -0.0271907029    0.0062308246          0.6126
C254       C   -0.3127912525   -0.0010469089   -0.0016682820          0.6127
C255       C   -0.3286998366    0.0256524248   -0.0085355936         -0.3865
C256       C   -0.3605210610    0.0261339247   -0.0077112375         -0.3856
C257       C   -0.2815462341   -0.0014689787   -0.0027950107          0.6122
H258       H   -0.3163876262   -0.0491658900    0.0120429134          0.6118
Cl259     Cl   -0.3778413206   -0.0634903377    0.0181377314          0.6129
H260       H   -0.3723693728    0.0484419582   -0.0136155859         -0.3849
H261       H   -0.3157745697    0.0473306334   -0.0149552766         -0.3864
C262       C   -0.2538447705    0.0072257549   -0.0057612547          0.6114
N263       N   -0.2225897732    0.0122512137   -0.0046061221          0.6077
N264       N   -0.2073758140    0.0016154274   -0.0289295365         -0.3699
C265       C   -0.1772989716   -0.0109900550   -0.0151564200         -0.3804
C266       C   -0.1502528303    0.0138093360   -0.0163199532         -0.3862
N267       N   -0.1224587099   -0.0000000000    0.0000000000          0.6014
N268       N   -0.1379977083   -0.0105423252    0.0186429129          0.5886
N269       N   -0.1624096876   -0.0238032735    0.0024880289          0.6066
H270       H   -0.1443370652    0.0195015565   -0.0411541148         -0.3665
H271       H   -0.1575719684    0.0362141572   -0.0046665874          0.5992
H272       H   -0.1705022928   -0.0332929597   -0.0273494076         -0.3654
C229       C    0.3775412901   -0.0000000000    0.0000000000         -0.3856
C230       C    0.3612062954    0.0242814712   -0.0140827559         -0.3866
C231       C    0.3291742632    0.0236391552   -0.0148103965          0.6126
C232       C    0.3127912525   -0.0004385262   -0.0019201244          0.6127
C233       C    0.3286998366   -0.0241799416    0.0120927118         -0.3865
C234       C    0.3605210610   -0.0239379150    0.0130161989         -0.3856
C235       C    0.2815462341   -0.0009363098   -0.0030155111          0.6122
H236       H    0.3163876262    0.0432927899   -0.0262307233          0.6118
Cl237     Cl    0.3778413206    0.0577339689   -0.0320435504          0.6129
H238       H    0.3723693728   -0.0438922204    0.0246065131         -0.3849
H239       H    0.3157745697   -0.0440529313    0.0228733120         -0.3864
C240       C    0.2538447705   -0.0091836606    0.0010314879          0.6114
N241       N    0.2225897732   -0.0119223312    0.0054006125          0.6077
N242       N    0.2073758140   -0.0215899889   -0.0193235626         -0.3699
C243       C    0.1772989716   -0.0029378704   -0.0184896537         -0.3804
C244       C    0.1502528303   -0.0213038358   -0.0017847166         -0.3862
N245       N    0.1224587099   -0.0000000000    0.0000000000          0.6014
N246       N    0.1379977083    0.0206345391    0.0057371265          0.5886
N247       N    0.1624096876    0.0185974365   -0.0150639129          0.6066
H248       H    0.1443370652   -0.0428832465   -0.0153296785         -0.3665
H249       H    0.1575719684   -0.0289169358    0.0222946864          0.5992
H250       H    0.1705022928    0.0042217306   -0.0428787623         -0.3654
C207       C    0.0000000000    0.0000000000   -0.3775412901         -0.3856
C208       C    0.0033977314   -0.0278634039   -0.3612062954         -0.3866
C209       C    0.0043193565   -0.0275590395   -0.3291742632          0.6126
C210       C    0.0019378518   -0.0003520131   -0.3127912525          0.6127
C211       C   -0.0016080023    0.0269873597   -0.3286998366         -0.3865
C212       C   -0.0025522537    0.0271280520   -0.3605210610         -0.3856
C213       C    0.0031407401   -0.0003251698   -0.2815462341          0.6122
H214       H    0.0070893887   -0.0501204257   -0.3163876262          0.6118
Cl215     Cl    0.0067539364   -0.0656839754   -0.3778413206          0.6129
H216       H   -0.0053603179    0.0500327341   -0.3723693728         -0.3849
H217       H   -0.0037035912    0.0494988138   -0.3157745697         -0.3864
C218       C    0.0026636353    0.0088492167   -0.2538447705          0.6114
N219       N   -0.0002762336    0.0130855757   -0.2225897732          0.6077
N220       N    0.0262577090    0.0122499146   -0.2073758140         -0.3699
C221       C    0.0181550085   -0.0045710001   -0.1772989716         -0.3804
C222       C    0.0100198177    0.0188849646   -0.1502528303         -0.3862
N223       N    0.0000000000    0.0000000000   -0.1224587099          0.6014
N224       N   -0.0133904540   -0.0167150999   -0.1379977083          0.5886
N225       N    0.0065353819   -0.0230233555   -0.1624096876          0.6066
H226       H    0.0309604778    0.0333979144   -0.1443370652         -0.3665
H227       H   -0.0091246833    0.0353550898   -0.1575719684          0.5992
H228       H    0.0377626191   -0.0207459842   -0.1705022928         -0.3654
C185       C   -0.0000000000   -0.0000000000    0.1224587099         -0.3856
C186       C   -0.0248888091    0.0129792541    0.1387937046         -0.3866
C187       C   -0.0251598916    0.0120472966    0.1708257368          0.6126
C188       C   -0.0013875690   -0.0013977966    0.1872087475          0.6127
C189       C    0.0231532264   -0.0139582006    0.1713001634         -0.3865
C190       C    0.0238039317   -0.0132596395    0.1394789390         -0.3856
C191       C   -0.0020466653   -0.0024044011    0.2184537659          0.6122
H192       H   -0.0453233774    0.0225412503    0.1836123738          0.6118
Cl193     Cl   -0.0579606509    0.0316316808    0.1221586794          0.6129
H194       H    0.0442718952   -0.0239166633    0.1276306272         -0.3849
H195       H    0.0428936079   -0.0249797429    0.1842254303         -0.3864
C196       C    0.0057849223   -0.0072068207    0.2461552295          0.6114
N197       N    0.0109413743   -0.0071829608    0.2774102268          0.6077
N198       N   -0.0047740781   -0.0285785911    0.2926241860         -0.3699
C199       C   -0.0140489021   -0.0123744383    0.3227010284         -0.3804
C200       C    0.0098902807   -0.0189531259    0.3497471697         -0.3862
N201       N    0.0000000000    0.0000000000    0.3775412901          0.6014
N202       N   -0.0061930503    0.0205023157    0.3620022917          0.5886
N203       N   -0.0226766284    0.0076522310    0.3375903124          0.6066
H204       H    0.0099925160   -0.0444310870    0.3556629348         -0.3665
H205       H    0.0343066352   -0.0125018798    0.3424280316          0.5992
H206       H   -0.0384842741   -0.0193745170    0.3294977072         -0.3654
loop_
_geom_bond_atom_site_label_1
_geom_bond_atom_site_label_2
_geom_bond_distance
_geom_bond_site_symmetry_2
_ccdc_geom_bond_type
Zn1          O5 1.942       .   S
Zn1          O6 1.922       .   S
Zn1         O10 1.922       .   S
Zn1         O17 1.922       .   S
Zn2          O5 1.942       .   S
Zn2          O7 1.922       .   S
Zn2          O9 1.922       .   S
Zn2         O13 1.922       .   S
Zn3          O5 1.942       .   S
Zn3          O8 1.922       .   S
Zn3         O11 1.922       .   S
Zn3         O14 1.922       .   S
Zn4          O5 1.942       .   S
Zn4         O12 1.922       .   S
Zn4         O15 1.922       .   S
Zn4         O16 1.922       .   S
O6          C18 1.304       .   A
O7          C19 1.304       .   A
O8          C20 1.304       .   A
O9          C18 1.304       .   A
O10         C20 1.304       .   A
O11         C19 1.304       .   A
O12         C21 1.304       .   A
O13         C22 1.304       .   A
O14         C21 1.304       .   A
O15         C22 1.304       .   A
O16         C23 1.304       .   A
O17         C23 1.304       .   A
C18        C185 1.540       .   S
C19        N245 1.540       .   S
C20        N311 1.540       .   S
C21        N223 1.540       .   S
C22        C273 1.540       .   S
C23        N267 1.540       .   S
Zn24        O28 1.942       .   S
Zn24        O29 1.922       .   S
Zn24        O33 1.922       .   S
Zn24        O40 1.922       .   S
Zn25        O28 1.942       .   S
Zn25        O30 1.922       .   S
Zn25        O32 1.922       .   S
Zn25        O36 1.922       .   S
Zn26        O28 1.942       .   S
Zn26        O31 1.922       .   S
Zn26        O34 1.922       .   S
Zn26        O37 1.922       .   S
Zn27        O28 1.942       .   S
Zn27        O35 1.922       .   S
Zn27        O38 1.922       .   S
Zn27        O39 1.922       .   S
O29         C41 1.304       .   A
O30         C42 1.304       .   A
O31         C43 1.304       .   A
O32         C41 1.304       .   A
O33         C43 1.304       .   A
O34         C42 1.304       .   A
O35         C44 1.304       .   A
O36         C45 1.304       .   A
O37         C44 1.304       .   A
O38         C45 1.304       .   A
O39         C46 1.304       .   A
O40         C46 1.304       .   A
C41        N377 1.540       .   S
C42        C339 1.540       .   S
C43        N201 1.540   1_655   S
C44        C383 1.540       .   S
C45        C207 1.540   1_656   S
C46        C317 1.540       .   S
Zn47        O51 1.942       .   S
Zn47        O52 1.922       .   S
Zn47        O56 1.922       .   S
Zn47        O63 1.922       .   S
Zn48        O51 1.942       .   S
Zn48        O53 1.922       .   S
Zn48        O55 1.922       .   S
Zn48        O59 1.922       .   S
Zn49        O51 1.942       .   S
Zn49        O54 1.922       .   S
Zn49        O57 1.922       .   S
Zn49        O60 1.922       .   S
Zn50        O51 1.942       .   S
Zn50        O58 1.922       .   S
Zn50        O61 1.922       .   S
Zn50        O62 1.922       .   S
O52         C64 1.304       .   A
O53         C65 1.304       .   A
O54         C66 1.304       .   A
O55         C64 1.304       .   A
O56         C66 1.304       .   A
O57         C65 1.304       .   A
O58         C67 1.304       .   A
O59         C68 1.304       .   A
O60         C67 1.304       .   A
O61         C68 1.304       .   A
O62         C69 1.304       .   A
O63         C69 1.304       .   A
C64        N289 1.540   1_655   S
C65        C405 1.540       .   S
C66        C449 1.540       .   S
C67        C295 1.540   1_665   S
C68        N487 1.540       .   S
C69        N443 1.540       .   S
Zn70        O74 1.942       .   S
Zn70        O75 1.922       .   S
Zn70        O79 1.922       .   S
Zn70        O86 1.922       .   S
Zn71        O74 1.942       .   S
Zn71        O76 1.922       .   S
Zn71        O78 1.922       .   S
Zn71        O82 1.922       .   S
Zn72        O74 1.942       .   S
Zn72        O77 1.922       .   S
Zn72        O80 1.922       .   S
Zn72        O83 1.922       .   S
Zn73        O74 1.942       .   S
Zn73        O81 1.922       .   S
Zn73        O84 1.922       .   S
Zn73        O85 1.922       .   S
O75         C87 1.304       .   A
O76         C88 1.304       .   A
O77         C89 1.304       .   A
O78         C87 1.304       .   A
O79         C89 1.304       .   A
O80         C88 1.304       .   A
O81         C90 1.304       .   A
O82         C91 1.304       .   A
O83         C90 1.304       .   A
O84         C91 1.304       .   A
O85         C92 1.304       .   A
O86         C92 1.304       .   A
C87        C361 1.540       .   S
C88        N421 1.540       .   S
C89        C515 1.540       .   S
C90        N399 1.540   1_565   S
C91        C493 1.540       .   S
C92        C427 1.540   1_556   S
Zn93        O97 1.942       .   S
Zn93        O98 1.922       .   S
Zn93       O102 1.922       .   S
Zn93       O109 1.922       .   S
Zn94        O97 1.942       .   S
Zn94        O99 1.922       .   S
Zn94       O101 1.922       .   S
Zn94       O105 1.922       .   S
Zn95        O97 1.942       .   S
Zn95       O100 1.922       .   S
Zn95       O103 1.922       .   S
Zn95       O106 1.922       .   S
Zn96        O97 1.942       .   S
Zn96       O104 1.922       .   S
Zn96       O107 1.922       .   S
Zn96       O108 1.922       .   S
O98        C110 1.304       .   A
O99        C111 1.304       .   A
O100       C112 1.304       .   A
O101       C110 1.304       .   A
O102       C112 1.304       .   A
O103       C111 1.304       .   A
O104       C113 1.304       .   A
O105       C114 1.304       .   A
O106       C113 1.304       .   A
O107       C114 1.304       .   A
O108       C115 1.304       .   A
O109       C115 1.304       .   A
C110       C229 1.540   1_565   S
C111       C537 1.540       .   S
C112       C603 1.540       .   S
C113       C251 1.540   1_665   S
C114       C581 1.540       .   S
C115       N575 1.540       .   S
Zn116      O120 1.942       .   S
Zn116      O121 1.922       .   S
Zn116      O125 1.922       .   S
Zn116      O132 1.922       .   S
Zn117      O120 1.942       .   S
Zn117      O122 1.922       .   S
Zn117      O124 1.922       .   S
Zn117      O128 1.922       .   S
Zn118      O120 1.942       .   S
Zn118      O123 1.922       .   S
Zn118      O126 1.922       .   S
Zn118      O129 1.922       .   S
Zn119      O120 1.942       .   S
Zn119      O127 1.922       .   S
Zn119      O130 1.922       .   S
Zn119      O131 1.922       .   S
O121       C133 1.304       .   A
O122       C134 1.304       .   A
O123       C135 1.304       .   A
O124       C133 1.304       .   A
O125       C135 1.304       .   A
O126       C134 1.304       .   A
O127       C136 1.304       .   A
O128       C137 1.304       .   A
O129       C136 1.304       .   A
O130       C137 1.304       .   A
O131       C138 1.304       .   A
O132       C138 1.304       .   A
C133       N333 1.540   1_465   S
C134       N553 1.540       .   S
C135       C625 1.540       .   S
C136       N355 1.540   1_565   S
C137       C647 1.540       .   S
C138       C559 1.540   1_556   S
Zn139      O143 1.942       .   S
Zn139      O144 1.922       .   S
Zn139      O148 1.922       .   S
Zn139      O155 1.922       .   S
Zn140      O143 1.942       .   S
Zn140      O145 1.922       .   S
Zn140      O147 1.922       .   S
Zn140      O151 1.922       .   S
Zn141      O143 1.942       .   S
Zn141      O146 1.922       .   S
Zn141      O149 1.922       .   S
Zn141      O152 1.922       .   S
Zn142      O143 1.942       .   S
Zn142      O150 1.922       .   S
Zn142      O153 1.922       .   S
Zn142      O154 1.922       .   S
O144       C156 1.304       .   A
O145       C157 1.304       .   A
O146       C158 1.304       .   A
O147       C156 1.304       .   A
O148       C158 1.304       .   A
O149       C157 1.304       .   A
O150       C159 1.304       .   A
O151       C160 1.304       .   A
O152       C159 1.304       .   A
O153       C160 1.304       .   A
O154       C161 1.304       .   A
O155       C161 1.304       .   A
C156       N465 1.540   1_455   S
C157       N597 1.540   1_545   S
C158       N707 1.540       .   S
C159       C471 1.540       .   S
C160       C669 1.540       .   S
C161       N619 1.540       .   S
Zn162      O166 1.942       .   S
Zn162      O167 1.922       .   S
Zn162      O171 1.922       .   S
Zn162      O178 1.922       .   S
Zn163      O166 1.942       .   S
Zn163      O168 1.922       .   S
Zn163      O170 1.922       .   S
Zn163      O174 1.922       .   S
Zn164      O166 1.942       .   S
Zn164      O169 1.922       .   S
Zn164      O172 1.922       .   S
Zn164      O175 1.922       .   S
Zn165      O166 1.942       .   S
Zn165      O173 1.922       .   S
Zn165      O176 1.922       .   S
Zn165      O177 1.922       .   S
O167       C179 1.304       .   A
O168       C180 1.304       .   A
O169       C181 1.304       .   A
O170       C179 1.304       .   A
O171       C181 1.304       .   A
O172       C180 1.304       .   A
O173       C182 1.304       .   A
O174       C183 1.304       .   A
O175       C182 1.304       .   A
O176       C183 1.304       .   A
O177       C184 1.304       .   A
O178       C184 1.304       .   A
C179       N641 1.540   1_545   S
C180       N509 1.540   1_455   S
C181       C691 1.540   1_556   S
C182       N663 1.540       .   S
C183       N685 1.540       .   S
C184       N531 1.540       .   S
C691       C692 0.029       .   A
C691       C696 0.028       .   A
C692       C693 0.028       .   A
C692      Cl699 0.037       .   A
C693       C694 0.028       .   A
C693       H698 0.023       .   A
C694       C695 0.028       .   A
C694       C697 0.028       .   A
C695       C696 0.028       .   A
C695       H701 0.023       .   A
C696       H700 0.023       .   A
C697       C702 0.026       .   A
C702       N703 0.028       .   A
N703       N704 0.027       .   A
N704       C705 0.031       .   A
C705       C706 0.033       .   A
C705       N709 0.023       .   A
C705       H712 0.023       .   A
C706       N707 0.031       .   A
C706       H710 0.023       .   A
C706       H711 0.023       .   A
N707       N708 0.023       .   A
N708       N709 0.028       .   A
C669       C670 0.029       .   A
C669       C674 0.028       .   A
C670       C671 0.028       .   A
C670      Cl677 0.037       .   A
C671       C672 0.028       .   A
C671       H676 0.023       .   A
C672       C673 0.028       .   A
C672       C675 0.028       .   A
C673       C674 0.028       .   A
C673       H679 0.023       .   A
C674       H678 0.023       .   A
C675       C680 0.026       .   A
C680       N681 0.028       .   A
N681       N682 0.027       .   A
N682       C683 0.031       .   A
C683       C684 0.033       .   A
C683       N687 0.023       .   A
C683       H690 0.023       .   A
C684       N685 0.031       .   A
C684       H688 0.023       .   A
C684       H689 0.023       .   A
N685       N686 0.023       .   A
N686       N687 0.028       .   A
C647       C648 0.029       .   A
C647       C652 0.028       .   A
C648       C649 0.028       .   A
C648      Cl655 0.037       .   A
C649       C650 0.028       .   A
C649       H654 0.023       .   A
C650       C651 0.028       .   A
C650       C653 0.028       .   A
C651       C652 0.028       .   A
C651       H657 0.023       .   A
C652       H656 0.023       .   A
C653       C658 0.026       .   A
C658       N659 0.028       .   A
N659       N660 0.027       .   A
N660       C661 0.031       .   A
C661       C662 0.033       .   A
C661       N665 0.023       .   A
C661       H668 0.023       .   A
C662       N663 0.031       .   A
C662       H666 0.023       .   A
C662       H667 0.023       .   A
N663       N664 0.023       .   A
N664       N665 0.028       .   A
C625       C626 0.029       .   A
C625       C630 0.028       .   A
C626       C627 0.028       .   A
C626      Cl633 0.037       .   A
C627       C628 0.028       .   A
C627       H632 0.023       .   A
C628       C629 0.028       .   A
C628       C631 0.028       .   A
C629       C630 0.028       .   A
C629       H635 0.023       .   A
C630       H634 0.023       .   A
C631       C636 0.026       .   A
C636       N637 0.028       .   A
N637       N638 0.027       .   A
N638       C639 0.031       .   A
C639       C640 0.033       .   A
C639       N643 0.023       .   A
C639       H646 0.023       .   A
C640       N641 0.031       .   A
C640       H644 0.023       .   A
C640       H645 0.023       .   A
N641       N642 0.023       .   A
N642       N643 0.028       .   A
C603       C604 0.029       .   A
C603       C608 0.028       .   A
C604       C605 0.028       .   A
C604      Cl611 0.037       .   A
C605       C606 0.028       .   A
C605       H610 0.023       .   A
C606       C607 0.028       .   A
C606       C609 0.028       .   A
C607       C608 0.028       .   A
C607       H613 0.023       .   A
C608       H612 0.023       .   A
C609       C614 0.026       .   A
C614       N615 0.028       .   A
N615       N616 0.027       .   A
N616       C617 0.031       .   A
C617       C618 0.033       .   A
C617       N621 0.023       .   A
C617       H624 0.023       .   A
C618       N619 0.031       .   A
C618       H622 0.023       .   A
C618       H623 0.023       .   A
N619       N620 0.023       .   A
N620       N621 0.028       .   A
C581       C582 0.029       .   A
C581       C586 0.028       .   A
C582       C583 0.028       .   A
C582      Cl589 0.037       .   A
C583       C584 0.028       .   A
C583       H588 0.023       .   A
C584       C585 0.028       .   A
C584       C587 0.028       .   A
C585       C586 0.028       .   A
C585       H591 0.023       .   A
C586       H590 0.023       .   A
C587       C592 0.026       .   A
C592       N593 0.028       .   A
N593       N594 0.027       .   A
N594       C595 0.031       .   A
C595       C596 0.033       .   A
C595       N599 0.023       .   A
C595       H602 0.023       .   A
C596       N597 0.031       .   A
C596       H600 0.023       .   A
C596       H601 0.023       .   A
N597       N598 0.023       .   A
N598       N599 0.028       .   A
C559       C560 0.029       .   A
C559       C564 0.028       .   A
C560       C561 0.028       .   A
C560      Cl567 0.037       .   A
C561       C562 0.028       .   A
C561       H566 0.023       .   A
C562       C563 0.028       .   A
C562       C565 0.028       .   A
C563       C564 0.028       .   A
C563       H569 0.023       .   A
C564       H568 0.023       .   A
C565       C570 0.026       .   A
C570       N571 0.028       .   A
N571       N572 0.027       .   A
N572       C573 0.031       .   A
C573       C574 0.033       .   A
C573       N577 0.023       .   A
C573       H580 0.023       .   A
C574       N575 0.031       .   A
C574       H578 0.023       .   A
C574       H579 0.023       .   A
N575       N576 0.023       .   A
N576       N577 0.028       .   A
C537       C538 0.029       .   A
C537       C542 0.028       .   A
C538       C539 0.028       .   A
C538      Cl545 0.037       .   A
C539       C540 0.028       .   A
C539       H544 0.023       .   A
C540       C541 0.028       .   A
C540       C543 0.028       .   A
C541       C542 0.028       .   A
C541       H547 0.023       .   A
C542       H546 0.023       .   A
C543       C548 0.026       .   A
C548       N549 0.028       .   A
N549       N550 0.027       .   A
N550       C551 0.031       .   A
C551       C552 0.033       .   A
C551       N555 0.023       .   A
C551       H558 0.023       .   A
C552       N553 0.031       .   A
C552       H556 0.023       .   A
C552       H557 0.023       .   A
N553       N554 0.023       .   A
N554       N555 0.028       .   A
C515       C516 0.029       .   A
C515       C520 0.028       .   A
C516       C517 0.028       .   A
C516      Cl523 0.037       .   A
C517       C518 0.028       .   A
C517       H522 0.023       .   A
C518       C519 0.028       .   A
C518       C521 0.028       .   A
C519       C520 0.028       .   A
C519       H525 0.023       .   A
C520       H524 0.023       .   A
C521       C526 0.026       .   A
C526       N527 0.028       .   A
N527       N528 0.027       .   A
N528       C529 0.031       .   A
C529       C530 0.033       .   A
C529       N533 0.023       .   A
C529       H536 0.023       .   A
C530       N531 0.031       .   A
C530       H534 0.023       .   A
C530       H535 0.023       .   A
N531       N532 0.023       .   A
N532       N533 0.028       .   A
C493       C494 0.029       .   A
C493       C498 0.028       .   A
C494       C495 0.028       .   A
C494      Cl501 0.037       .   A
C495       C496 0.028       .   A
C495       H500 0.023       .   A
C496       C497 0.028       .   A
C496       C499 0.028       .   A
C497       C498 0.028       .   A
C497       H503 0.023       .   A
C498       H502 0.023       .   A
C499       C504 0.026       .   A
C504       N505 0.028       .   A
N505       N506 0.027       .   A
N506       C507 0.031       .   A
C507       C508 0.033       .   A
C507       N511 0.023       .   A
C507       H514 0.023       .   A
C508       N509 0.031       .   A
C508       H512 0.023       .   A
C508       H513 0.023       .   A
N509       N510 0.023       .   A
N510       N511 0.028       .   A
C471       C472 0.029       .   A
C471       C476 0.028       .   A
C472       C473 0.028       .   A
C472      Cl479 0.037       .   A
C473       C474 0.028       .   A
C473       H478 0.023       .   A
C474       C475 0.028       .   A
C474       C477 0.028       .   A
C475       C476 0.028       .   A
C475       H481 0.023       .   A
C476       H480 0.023       .   A
C477       C482 0.026       .   A
C482       N483 0.028       .   A
N483       N484 0.027       .   A
N484       C485 0.031       .   A
C485       C486 0.033       .   A
C485       N489 0.023       .   A
C485       H492 0.023       .   A
C486       N487 0.031       .   A
C486       H490 0.023       .   A
C486       H491 0.023       .   A
N487       N488 0.023       .   A
N488       N489 0.028       .   A
C449       C450 0.029       .   A
C449       C454 0.028       .   A
C450       C451 0.028       .   A
C450      Cl457 0.037       .   A
C451       C452 0.028       .   A
C451       H456 0.023       .   A
C452       C453 0.028       .   A
C452       C455 0.028       .   A
C453       C454 0.028       .   A
C453       H459 0.023       .   A
C454       H458 0.023       .   A
C455       C460 0.026       .   A
C460       N461 0.028       .   A
N461       N462 0.027       .   A
N462       C463 0.031       .   A
C463       C464 0.033       .   A
C463       N467 0.023       .   A
C463       H470 0.023       .   A
C464       N465 0.031       .   A
C464       H468 0.023       .   A
C464       H469 0.023       .   A
N465       N466 0.023       .   A
N466       N467 0.028       .   A
C427       C428 0.029       .   A
C427       C432 0.028       .   A
C428       C429 0.028       .   A
C428      Cl435 0.037       .   A
C429       C430 0.028       .   A
C429       H434 0.023       .   A
C430       C431 0.028       .   A
C430       C433 0.028       .   A
C431       C432 0.028       .   A
C431       H437 0.023       .   A
C432       H436 0.023       .   A
C433       C438 0.026       .   A
C438       N439 0.028       .   A
N439       N440 0.027       .   A
N440       C441 0.031       .   A
C441       C442 0.033       .   A
C441       N445 0.023       .   A
C441       H448 0.023       .   A
C442       N443 0.031       .   A
C442       H446 0.023       .   A
C442       H447 0.023       .   A
N443       N444 0.023       .   A
N444       N445 0.028       .   A
C405       C406 0.029       .   A
C405       C410 0.028       .   A
C406       C407 0.028       .   A
C406      Cl413 0.037       .   A
C407       C408 0.028       .   A
C407       H412 0.023       .   A
C408       C409 0.028       .   A
C408       C411 0.028       .   A
C409       C410 0.028       .   A
C409       H415 0.023       .   A
C410       H414 0.023       .   A
C411       C416 0.026       .   A
C416       N417 0.028       .   A
N417       N418 0.027       .   A
N418       C419 0.031       .   A
C419       C420 0.033       .   A
C419       N423 0.023       .   A
C419       H426 0.023       .   A
C420       N421 0.031       .   A
C420       H424 0.023       .   A
C420       H425 0.023       .   A
N421       N422 0.023       .   A
N422       N423 0.028       .   A
C383       C384 0.029       .   A
C383       C388 0.028       .   A
C384       C385 0.028       .   A
C384      Cl391 0.037       .   A
C385       C386 0.028       .   A
C385       H390 0.023       .   A
C386       C387 0.028       .   A
C386       C389 0.028       .   A
C387       C388 0.028       .   A
C387       H393 0.023       .   A
C388       H392 0.023       .   A
C389       C394 0.026       .   A
C394       N395 0.028       .   A
N395       N396 0.027       .   A
N396       C397 0.031       .   A
C397       C398 0.033       .   A
C397       N401 0.023       .   A
C397       H404 0.023       .   A
C398       N399 0.031       .   A
C398       H402 0.023       .   A
C398       H403 0.023       .   A
N399       N400 0.023       .   A
N400       N401 0.028       .   A
C361       C362 0.029       .   A
C361       C366 0.028       .   A
C362       C363 0.028       .   A
C362      Cl369 0.037       .   A
C363       C364 0.028       .   A
C363       H368 0.023       .   A
C364       C365 0.028       .   A
C364       C367 0.028       .   A
C365       C366 0.028       .   A
C365       H371 0.023       .   A
C366       H370 0.023       .   A
C367       C372 0.026       .   A
C372       N373 0.028       .   A
N373       N374 0.027       .   A
N374       C375 0.031       .   A
C375       C376 0.033       .   A
C375       N379 0.023       .   A
C375       H382 0.023       .   A
C376       N377 0.031       .   A
C376       H380 0.023       .   A
C376       H381 0.023       .   A
N377       N378 0.023       .   A
N378       N379 0.028       .   A
C339       C340 0.029       .   A
C339       C344 0.028       .   A
C340       C341 0.028       .   A
C340      Cl347 0.037       .   A
C341       C342 0.028       .   A
C341       H346 0.023       .   A
C342       C343 0.028       .   A
C342       C345 0.028       .   A
C343       C344 0.028       .   A
C343       H349 0.023       .   A
C344       H348 0.023       .   A
C345       C350 0.026       .   A
C350       N351 0.028       .   A
N351       N352 0.027       .   A
N352       C353 0.031       .   A
C353       C354 0.033       .   A
C353       N357 0.023       .   A
C353       H360 0.023       .   A
C354       N355 0.031       .   A
C354       H358 0.023       .   A
C354       H359 0.023       .   A
N355       N356 0.023       .   A
N356       N357 0.028       .   A
C317       C318 0.029       .   A
C317       C322 0.028       .   A
C318       C319 0.028       .   A
C318      Cl325 0.037       .   A
C319       C320 0.028       .   A
C319       H324 0.023       .   A
C320       C321 0.028       .   A
C320       C323 0.028       .   A
C321       C322 0.028       .   A
C321       H327 0.023       .   A
C322       H326 0.023       .   A
C323       C328 0.026       .   A
C328       N329 0.028       .   A
N329       N330 0.027       .   A
N330       C331 0.031       .   A
C331       C332 0.033       .   A
C331       N335 0.023       .   A
C331       H338 0.023       .   A
C332       N333 0.031       .   A
C332       H336 0.023       .   A
C332       H337 0.023       .   A
N333       N334 0.023       .   A
N334       N335 0.028       .   A
C295       C296 0.029       .   A
C295       C300 0.028       .   A
C296       C297 0.028       .   A
C296      Cl303 0.037       .   A
C297       C298 0.028       .   A
C297       H302 0.023       .   A
C298       C299 0.028       .   A
C298       C301 0.028       .   A
C299       C300 0.028       .   A
C299       H305 0.023       .   A
C300       H304 0.023       .   A
C301       C306 0.026       .   A
C306       N307 0.028       .   A
N307       N308 0.027       .   A
N308       C309 0.031       .   A
C309       C310 0.033       .   A
C309       N313 0.023       .   A
C309       H316 0.023       .   A
C310       N311 0.031       .   A
C310       H314 0.023       .   A
C310       H315 0.023       .   A
N311       N312 0.023       .   A
N312       N313 0.028       .   A
C273       C274 0.029       .   A
C273       C278 0.028       .   A
C274       C275 0.028       .   A
C274      Cl281 0.037       .   A
C275       C276 0.028       .   A
C275       H280 0.023       .   A
C276       C277 0.028       .   A
C276       C279 0.028       .   A
C277       C278 0.028       .   A
C277       H283 0.023       .   A
C278       H282 0.023       .   A
C279       C284 0.026       .   A
C284       N285 0.028       .   A
N285       N286 0.027       .   A
N286       C287 0.031       .   A
C287       C288 0.033       .   A
C287       N291 0.023       .   A
C287       H294 0.023       .   A
C288       N289 0.031       .   A
C288       H292 0.023       .   A
C288       H293 0.023       .   A
N289       N290 0.023       .   A
N290       N291 0.028       .   A
C251       C252 0.029       .   A
C251       C256 0.028       .   A
C252       C253 0.028       .   A
C252      Cl259 0.037       .   A
C253       C254 0.028       .   A
C253       H258 0.023       .   A
C254       C255 0.028       .   A
C254       C257 0.028       .   A
C255       C256 0.028       .   A
C255       H261 0.023       .   A
C256       H260 0.023       .   A
C257       C262 0.026       .   A
C262       N263 0.028       .   A
N263       N264 0.027       .   A
N264       C265 0.031       .   A
C265       C266 0.033       .   A
C265       N269 0.023       .   A
C265       H272 0.023       .   A
C266       N267 0.031       .   A
C266       H270 0.023       .   A
C266       H271 0.023       .   A
N267       N268 0.023       .   A
N268       N269 0.028       .   A
C229       C230 0.029       .   A
C229       C234 0.028       .   A
C230       C231 0.028       .   A
C230      Cl237 0.037       .   A
C231       C232 0.028       .   A
C231       H236 0.023       .   A
C232       C233 0.028       .   A
C232       C235 0.028       .   A
C233       C234 0.028       .   A
C233       H239 0.023       .   A
C234       H238 0.023       .   A
C235       C240 0.026       .   A
C240       N241 0.028       .   A
N241       N242 0.027       .   A
N242       C243 0.031       .   A
C243       C244 0.033       .   A
C243       N247 0.023       .   A
C243       H250 0.023       .   A
C244       N245 0.031       .   A
C244       H248 0.023       .   A
C244       H249 0.023       .   A
N245       N246 0.023       .   A
N246       N247 0.028       .   A
C207       C208 0.029       .   A
C207       C212 0.028       .   A
C208       C209 0.028       .   A
C208      Cl215 0.037       .   A
C209       C210 0.028       .   A
C209       H214 0.023       .   A
C210       C211 0.028       .   A
C210       C213 0.028       .   A
C211       C212 0.028       .   A
C211       H217 0.023       .   A
C212       H216 0.023       .   A
C213       C218 0.026       .   A
C218       N219 0.028       .   A
N219       N220 0.027       .   A
N220       C221 0.031       .   A
C221       C222 0.033       .   A
C221       N225 0.023       .   A
C221       H228 0.023       .   A
C222       N223 0.031       .   A
C222       H226 0.023       .   A
C222       H227 0.023       .   A
N223       N224 0.023       .   A
N224       N225 0.028       .   A
C185       C186 0.029       .   A
C185       C190 0.028       .   A
C186       C187 0.028       .   A
C186      Cl193 0.037       .   A
C187       C188 0.028       .   A
C187       H192 0.023       .   A
C188       C189 0.028       .   A
C188       C191 0.028       .   A
C189       C190 0.028       .   A
C189       H195 0.023       .   A
C190       H194 0.023       .   A
C191       C196 0.026       .   A
C196       N197 0.028       .   A
N197       N198 0.027       .   A
N198       C199 0.031       .   A
C199       C200 0.033       .   A
C199       N203 0.023       .   A
C199       H206 0.023       .   A
C200       N201 0.031       .   A
C200       H204 0.023       .   A
C200       H205 0.023       .   A
N201       N202 0.023       .   A
N202       N203 0.028       .   A
