data_pcu_v1-6c_Zn_1_Ch_1-33_fer_tobacco
_audit_creation_date              2021-02-03
_audit_creation_method            'tobacco_3.0'
_symmetry_space_group_name_H-M    'P1'
_symmetry_Int_Tables_number       1
_symmetry_cell_setting            triclinic
loop_
_symmetry_equiv_pos_as_xyz
  x,y,z
_cell_length_a                    46.23078506470698
_cell_length_b                    46.23078506470698
_cell_length_c                    46.23078506470698
_cell_angle_alpha                 90.0
_cell_angle_beta                  90.0
_cell_angle_gamma                 90.0
loop_
_atom_site_label
_atom_site_type_symbol
_atom_site_fract_x
_atom_site_fract_y
_atom_site_fract_z
_atom_site_charge
Zn1       Zn   -0.0242522379    0.0242522379   -0.0242522379          1.4972
Zn2       Zn    0.0242522379    0.0242522379    0.0242522379          1.4936
Zn3       Zn   -0.0242522379   -0.0242522379    0.0242522379          1.4911
Zn4       Zn    0.0242522379   -0.0242522379   -0.0242522379          1.4948
O5         O    0.0000000000    0.0000000000    0.0000000000         -2.2926
O6         O   -0.0178236212    0.0648182806   -0.0178236212         -1.1989
O7         O    0.0178236212    0.0178236212    0.0648182806         -1.1971
O8         O   -0.0648182806   -0.0178236212    0.0178236212         -1.1922
O9         O    0.0178236212    0.0648182806    0.0178236212          -1.199
O10        O   -0.0648182806    0.0178236212   -0.0178236212          -1.195
O11        O   -0.0178236212   -0.0178236212    0.0648182806         -1.2008
O12        O    0.0178236212   -0.0648182806   -0.0178236212         -1.1947
O13        O    0.0648182806    0.0178236212    0.0178236212         -1.2023
O14        O   -0.0178236212   -0.0648182806    0.0178236212         -1.1962
O15        O    0.0648182806   -0.0178236212   -0.0178236212         -1.2009
O16        O    0.0178236212   -0.0178236212   -0.0648182806            -1.2
O17        O   -0.0178236212    0.0178236212   -0.0648182806         -1.1979
C18        C   -0.0000000000    0.0774981432    0.0000000000            0.32
C19        C    0.0000000000   -0.0000000000    0.0774981432          0.3249
C20        C   -0.0774981432    0.0000000000   -0.0000000000          0.3145
C21        C    0.0000000000   -0.0774981432   -0.0000000000          0.3183
C22        C    0.0774981432   -0.0000000000    0.0000000000          0.3297
C23        C   -0.0000000000    0.0000000000   -0.0774981432          0.3202
Zn24      Zn    0.9757477621    0.0242522379    0.4757477621          1.4972
Zn25      Zn    1.0242522379   -0.0242522379    0.4757477621          1.4936
Zn26      Zn    1.0242522379    0.0242522379    0.5242522379          1.4911
Zn27      Zn    0.9757477621   -0.0242522379    0.5242522379          1.4948
O28        O    1.0000000000    0.0000000000    0.5000000000         -2.2926
O29        O    0.9821763788    0.0178236212    0.4351817194         -1.1989
O30        O    1.0648182806   -0.0178236212    0.4821763788         -1.1971
O31        O    1.0178236212    0.0648182806    0.5178236212         -1.1922
O32        O    1.0178236212   -0.0178236212    0.4351817194          -1.199
O33        O    0.9821763788    0.0648182806    0.4821763788          -1.195
O34        O    1.0648182806    0.0178236212    0.5178236212         -1.2008
O35        O    0.9821763788   -0.0178236212    0.5648182806         -1.1947
O36        O    1.0178236212   -0.0648182806    0.4821763788         -1.2023
O37        O    1.0178236212    0.0178236212    0.5648182806         -1.1962
O38        O    0.9821763788   -0.0648182806    0.5178236212         -1.2009
O39        O    0.9351817194   -0.0178236212    0.5178236212            -1.2
O40        O    0.9351817194    0.0178236212    0.4821763788         -1.1979
C41        C    1.0000000000    0.0000000000    0.4225018568            0.32
C42        C    1.0774981432    0.0000000000    0.5000000000          0.3249
C43        C    1.0000000000    0.0774981432    0.5000000000          0.3145
C44        C    1.0000000000    0.0000000000    0.5774981432          0.3183
C45        C    1.0000000000   -0.0774981432    0.5000000000          0.3297
C46        C    0.9225018568    0.0000000000    0.5000000000          0.3202
Zn47      Zn    1.0242522379    0.4757477621   -0.0242522379          1.4972
Zn48      Zn    0.9757477621    0.5242522379   -0.0242522379          1.4936
Zn49      Zn    0.9757477621    0.4757477621    0.0242522379          1.4911
Zn50      Zn    1.0242522379    0.5242522379    0.0242522379          1.4948
O51        O    1.0000000000    0.5000000000    0.0000000000         -2.2926
O52        O    1.0178236212    0.4821763788   -0.0648182806         -1.1989
O53        O    0.9351817194    0.5178236212   -0.0178236212         -1.1971
O54        O    0.9821763788    0.4351817194    0.0178236212         -1.1922
O55        O    0.9821763788    0.5178236212   -0.0648182806          -1.199
O56        O    1.0178236212    0.4351817194   -0.0178236212          -1.195
O57        O    0.9351817194    0.4821763788    0.0178236212         -1.2008
O58        O    1.0178236212    0.5178236212    0.0648182806         -1.1947
O59        O    0.9821763788    0.5648182806   -0.0178236212         -1.2023
O60        O    0.9821763788    0.4821763788    0.0648182806         -1.1962
O61        O    1.0178236212    0.5648182806    0.0178236212         -1.2009
O62        O    1.0648182806    0.5178236212    0.0178236212            -1.2
O63        O    1.0648182806    0.4821763788   -0.0178236212         -1.1979
C64        C    1.0000000000    0.5000000000   -0.0774981432            0.32
C65        C    0.9225018568    0.5000000000    0.0000000000          0.3249
C66        C    1.0000000000    0.4225018568    0.0000000000          0.3145
C67        C    1.0000000000    0.5000000000    0.0774981432          0.3183
C68        C    1.0000000000    0.5774981432    0.0000000000          0.3297
C69        C    1.0774981432    0.5000000000    0.0000000000          0.3202
Zn70      Zn    0.9757477621    0.4757477621    0.5242522379          1.4972
Zn71      Zn    1.0242522379    0.4757477621    0.4757477621          1.4936
Zn72      Zn    0.9757477621    0.5242522379    0.4757477621          1.4911
Zn73      Zn    1.0242522379    0.5242522379    0.5242522379          1.4948
O74        O    1.0000000000    0.5000000000    0.5000000000         -2.2926
O75        O    0.9821763788    0.4351817194    0.5178236212         -1.1989
O76        O    1.0178236212    0.4821763788    0.4351817194         -1.1971
O77        O    0.9351817194    0.5178236212    0.4821763788         -1.1922
O78        O    1.0178236212    0.4351817194    0.4821763788          -1.199
O79        O    0.9351817194    0.4821763788    0.5178236212          -1.195
O80        O    0.9821763788    0.5178236212    0.4351817194         -1.2008
O81        O    1.0178236212    0.5648182806    0.5178236212         -1.1947
O82        O    1.0648182806    0.4821763788    0.4821763788         -1.2023
O83        O    0.9821763788    0.5648182806    0.4821763788         -1.1962
O84        O    1.0648182806    0.5178236212    0.5178236212         -1.2009
O85        O    1.0178236212    0.5178236212    0.5648182806            -1.2
O86        O    0.9821763788    0.4821763788    0.5648182806         -1.1979
C87        C    1.0000000000    0.4225018568    0.5000000000            0.32
C88        C    1.0000000000    0.5000000000    0.4225018568          0.3249
C89        C    0.9225018568    0.5000000000    0.5000000000          0.3145
C90        C    1.0000000000    0.5774981432    0.5000000000          0.3183
C91        C    1.0774981432    0.5000000000    0.5000000000          0.3297
C92        C    1.0000000000    0.5000000000    0.5774981432          0.3202
Zn93      Zn    0.4757477621    0.9757477621   -0.0242522379          1.4972
Zn94      Zn    0.4757477621    1.0242522379    0.0242522379          1.4936
Zn95      Zn    0.5242522379    0.9757477621    0.0242522379          1.4911
Zn96      Zn    0.5242522379    1.0242522379   -0.0242522379          1.4948
O97        O    0.5000000000    1.0000000000    0.0000000000         -2.2926
O98        O    0.4351817194    0.9821763788   -0.0178236212         -1.1989
O99        O    0.4821763788    1.0178236212    0.0648182806         -1.1971
O100       O    0.5178236212    0.9351817194    0.0178236212         -1.1922
O101       O    0.4351817194    1.0178236212    0.0178236212          -1.199
O102       O    0.4821763788    0.9351817194   -0.0178236212          -1.195
O103       O    0.5178236212    0.9821763788    0.0648182806         -1.2008
O104       O    0.5648182806    1.0178236212   -0.0178236212         -1.1947
O105       O    0.4821763788    1.0648182806    0.0178236212         -1.2023
O106       O    0.5648182806    0.9821763788    0.0178236212         -1.1962
O107       O    0.5178236212    1.0648182806   -0.0178236212         -1.2009
O108       O    0.5178236212    1.0178236212   -0.0648182806            -1.2
O109       O    0.4821763788    0.9821763788   -0.0648182806         -1.1979
C110       C    0.4225018568    1.0000000000    0.0000000000            0.32
C111       C    0.5000000000    1.0000000000    0.0774981432          0.3249
C112       C    0.5000000000    0.9225018568    0.0000000000          0.3145
C113       C    0.5774981432    1.0000000000    0.0000000000          0.3183
C114       C    0.5000000000    1.0774981432    0.0000000000          0.3297
C115       C    0.5000000000    1.0000000000   -0.0774981432          0.3202
Zn116     Zn    0.5242522379    1.0242522379    0.4757477621          1.4972
Zn117     Zn    0.4757477621    1.0242522379    0.5242522379          1.4936
Zn118     Zn    0.4757477621    0.9757477621    0.4757477621          1.4911
Zn119     Zn    0.5242522379    0.9757477621    0.5242522379          1.4948
O120       O    0.5000000000    1.0000000000    0.5000000000         -2.2926
O121       O    0.5178236212    1.0648182806    0.4821763788         -1.1989
O122       O    0.4351817194    1.0178236212    0.5178236212         -1.1971
O123       O    0.4821763788    0.9821763788    0.4351817194         -1.1922
O124       O    0.4821763788    1.0648182806    0.5178236212          -1.199
O125       O    0.5178236212    1.0178236212    0.4351817194          -1.195
O126       O    0.4351817194    0.9821763788    0.4821763788         -1.2008
O127       O    0.5178236212    0.9351817194    0.5178236212         -1.1947
O128       O    0.4821763788    1.0178236212    0.5648182806         -1.2023
O129       O    0.4821763788    0.9351817194    0.4821763788         -1.1962
O130       O    0.5178236212    0.9821763788    0.5648182806         -1.2009
O131       O    0.5648182806    0.9821763788    0.5178236212            -1.2
O132       O    0.5648182806    1.0178236212    0.4821763788         -1.1979
C133       C    0.5000000000    1.0774981432    0.5000000000            0.32
C134       C    0.4225018568    1.0000000000    0.5000000000          0.3249
C135       C    0.5000000000    1.0000000000    0.4225018568          0.3145
C136       C    0.5000000000    0.9225018568    0.5000000000          0.3183
C137       C    0.5000000000    1.0000000000    0.5774981432          0.3297
C138       C    0.5774981432    1.0000000000    0.5000000000          0.3202
Zn139     Zn    0.4757477621    0.5242522379   -0.0242522379          1.4972
Zn140     Zn    0.4757477621    0.4757477621    0.0242522379          1.4936
Zn141     Zn    0.5242522379    0.4757477621   -0.0242522379          1.4911
Zn142     Zn    0.5242522379    0.5242522379    0.0242522379          1.4948
O143       O    0.5000000000    0.5000000000    0.0000000000         -2.2926
O144       O    0.4351817194    0.5178236212   -0.0178236212         -1.1989
O145       O    0.4821763788    0.4351817194    0.0178236212         -1.1971
O146       O    0.5178236212    0.4821763788   -0.0648182806         -1.1922
O147       O    0.4351817194    0.4821763788    0.0178236212          -1.199
O148       O    0.4821763788    0.5178236212   -0.0648182806          -1.195
O149       O    0.5178236212    0.4351817194   -0.0178236212         -1.2008
O150       O    0.5648182806    0.5178236212    0.0178236212         -1.1947
O151       O    0.4821763788    0.4821763788    0.0648182806         -1.2023
O152       O    0.5648182806    0.4821763788   -0.0178236212         -1.1962
O153       O    0.5178236212    0.5178236212    0.0648182806         -1.2009
O154       O    0.5178236212    0.5648182806    0.0178236212            -1.2
O155       O    0.4821763788    0.5648182806   -0.0178236212         -1.1979
C156       C    0.4225018568    0.5000000000    0.0000000000            0.32
C157       C    0.5000000000    0.4225018568    0.0000000000          0.3249
C158       C    0.5000000000    0.5000000000   -0.0774981432          0.3145
C159       C    0.5774981432    0.5000000000    0.0000000000          0.3183
C160       C    0.5000000000    0.5000000000    0.0774981432          0.3297
C161       C    0.5000000000    0.5774981432    0.0000000000          0.3202
Zn162     Zn    0.4757477621    0.4757477621    0.4757477621          1.4972
Zn163     Zn    0.4757477621    0.5242522379    0.5242522379          1.4936
Zn164     Zn    0.5242522379    0.4757477621    0.5242522379          1.4911
Zn165     Zn    0.5242522379    0.5242522379    0.4757477621          1.4948
O166       O    0.5000000000    0.5000000000    0.5000000000         -2.2926
O167       O    0.4351817194    0.4821763788    0.4821763788         -1.1989
O168       O    0.4821763788    0.5178236212    0.5648182806         -1.1971
O169       O    0.5178236212    0.4351817194    0.5178236212         -1.1922
O170       O    0.4351817194    0.5178236212    0.5178236212          -1.199
O171       O    0.4821763788    0.4351817194    0.4821763788          -1.195
O172       O    0.5178236212    0.4821763788    0.5648182806         -1.2008
O173       O    0.5648182806    0.5178236212    0.4821763788         -1.1947
O174       O    0.4821763788    0.5648182806    0.5178236212         -1.2023
O175       O    0.5648182806    0.4821763788    0.5178236212         -1.1962
O176       O    0.5178236212    0.5648182806    0.4821763788         -1.2009
O177       O    0.5178236212    0.5178236212    0.4351817194            -1.2
O178       O    0.4821763788    0.4821763788    0.4351817194         -1.1979
C179       C    0.4225018568    0.5000000000    0.5000000000            0.32
C180       C    0.5000000000    0.5000000000    0.5774981432          0.3249
C181       C    0.5000000000    0.4225018568    0.5000000000          0.3145
C182       C    0.5774981432    0.5000000000    0.5000000000          0.3183
C183       C    0.5000000000    0.5774981432    0.5000000000          0.3297
C184       C    0.5000000000    0.5000000000    0.4225018568          0.3202
C1151      C    0.5000000000    0.5000000000   -0.3891907201          0.5402
C1152      C    0.5275042224    0.5033723260   -0.3808382910           0.543
C1153      C    0.5345371122    0.5054762053   -0.3528487957          0.5447
C1154      C    0.5134367484    0.5042712033   -0.3327916294          0.5436
C1155      C    0.4862443774    0.4992343153   -0.3411904713          0.5393
C1156      C    0.4795498861    0.4972647733   -0.3688935106          0.5377
C1157      C    0.5197344540    0.5092086692   -0.3009105450         -0.4522
N1158      N    0.5624845466    0.5090806313   -0.3455810620         -0.4523
H1159      H    0.5445682452    0.5051417889   -0.3969980793          0.5446
H1160      H    0.4569431053    0.4936221023   -0.3741484669          0.5346
H1161      H    0.4686687267    0.4973273718   -0.3257618763          0.5375
C1162      C    0.4932093984    0.5190090981   -0.2828127143         -0.4434
N1163      N    0.5041985604    0.5312568227   -0.2554827143         -0.4326
N1164      N    0.5188594404    0.5441445335   -0.2693551717          -0.421
N1165      N    0.5297834151    0.5287011445   -0.2914114685         -0.4348
C1166      C    0.5104125303    0.5077357612   -0.2345626003         -0.4539
H1167      H    0.4792787177    0.5344746869   -0.2946983528         -0.4293
H1168      H    0.4794080363    0.5002853304   -0.2781878677          0.5398
H1169      H    0.5297869951    0.4901328606   -0.2912783605          0.5305
H1170      H    0.5679431225    0.5166336453   -0.3256117420         -0.4457
H1171      H    0.5769894223    0.5169669320   -0.3601662180         -0.4452
O1172      O    0.4886739177    0.5090523462   -0.2121965139         -0.4527
C1173      C    0.5307490251    0.5323160941   -0.1939412971         -0.4322
C1174      C    0.5392803617    0.5124449670   -0.2189669930         -0.4499
C1175      C    0.4972280513    0.4987341872   -0.1617971450          0.5376
H1176      H    0.5472268072    0.4915656089   -0.2114266715          0.5312
H1177      H    0.5296176170    0.5545331137   -0.2019120679         -0.4122
H1178      H    0.5461995403    0.5318492953   -0.1761348362         -0.4328
H1179      H    0.5559379026    0.5219501872   -0.2327596833         -0.4414
H1180      H    0.4865930963    0.5407370702   -0.1804712317         -0.4245
C1181      C    0.4999943015    0.5220296286   -0.1859705568         -0.4413
H1182      H    0.5094620628    0.4864134454   -0.2451006158           0.527
O1183      O    0.4864796214    0.5127354984   -0.1358834477         -0.4499
C1184      C    0.5308713788    0.4948633586   -0.1218557068          0.5337
C1185      C    0.5249676085    0.4825855366   -0.1519256672          0.5229
H1186      H    0.5437876799    0.4847284108   -0.1657921689          0.5248
H1187      H    0.5432307983    0.4799172389   -0.1083824413          0.5201
H1188      H    0.5425056742    0.5154319450   -0.1236385324         -0.4479
H1189      H    0.5201275934    0.4595078962   -0.1501329502          0.5021
H1190      H    0.4896121249    0.4792203622   -0.1061838377          0.5198
C1191      C    0.5000000000    0.5000000000   -0.1108092799          0.5384
H1192      H    0.4811047722    0.4827069021   -0.1684040166          0.5233
C1109      C    0.5000000000    0.5000000000    0.1108092799          0.5402
C1110      C    0.5275253062    0.5031956772    0.1191617090           0.543
C1111      C    0.5345715582    0.5052543614    0.1471512043          0.5447
C1112      C    0.5134638929    0.5041848502    0.1672083706          0.5436
C1113      C    0.4862397451    0.4993226433    0.1588095287          0.5393
C1114      C    0.4795327472    0.4973961211    0.1311064894          0.5377
C1115      C    0.5197931677    0.5090817827    0.1990894550         -0.4522
N1116      N    0.5625415573    0.5086792884    0.1544189380         -0.4523
H1117      H    0.5446003374    0.5048555512    0.1030019207          0.5446
H1118      H    0.4569030461    0.4938986625    0.1258515331          0.5346
H1119      H    0.4686522139    0.4975285762    0.1742381237          0.5375
C1120      C    0.4933315783    0.5190523026    0.2171872857         -0.4434
N1121      N    0.5043991451    0.5312292234    0.2445172857         -0.4326
N1122      N    0.5191424632    0.5440225447    0.2306448283          -0.421
N1123      N    0.5299670649    0.5285093411    0.2085885315         -0.4348
C1124      C    0.5104619800    0.5076687525    0.2654373997         -0.4539
H1125      H    0.4795004750    0.5346070087    0.2053016472         -0.4293
H1126      H    0.4794102925    0.5004175266    0.2218121323          0.5398
H1127      H    0.5297230333    0.4899418290    0.2087216395          0.5305
H1128      H    0.5680485116    0.5161971022    0.1743882580         -0.4457
H1129      H    0.5770967647    0.5164723041    0.1398337820         -0.4452
O1130      O    0.4887322679    0.5091248740    0.2878034861         -0.4527
C1131      C    0.5309558633    0.5321180169    0.3060587029         -0.4322
C1132      C    0.5393594499    0.5121925274    0.2810330070         -0.4499
C1133      C    0.4972199818    0.4987520094    0.3382028550          0.5376
H1134      H    0.5471716844    0.4912625828    0.2885733285          0.5312
H1135      H    0.5299671136    0.5543418424    0.2980879321         -0.4122
H1136      H    0.5464030632    0.5315520342    0.3238651638         -0.4328
H1137      H    0.5560776717    0.5215906090    0.2672403167         -0.4414
H1138      H    0.4868549079    0.5408223041    0.3195287683         -0.4245
C1139      C    0.5001357336    0.5220292112    0.3140294432         -0.4413
H1140      H    0.5093746410    0.4863529782    0.2548993842           0.527
O1141      O    0.4865616629    0.5128220379    0.3641165523         -0.4499
C1142      C    0.5308377649    0.4946652678    0.3781442932          0.5337
C1143      C    0.5248552917    0.4824256015    0.3480743328          0.5229
H1144      H    0.5436887326    0.4844476051    0.3342078311          0.5248
H1145      H    0.5431009744    0.4796401076    0.3916175587          0.5201
H1146      H    0.5426038725    0.5151587371    0.3763614676         -0.4479
H1147      H    0.5198672160    0.4593795099    0.3498670498          0.5021
H1148      H    0.4894789320    0.4792874815    0.3938161623          0.5198
C1149      C    0.5000000000    0.5000000000    0.3891907201          0.5384
H1150      H    0.4809941385    0.4828285674    0.3315959834          0.5233
C1067      C    0.5000000000    0.8891907201    0.5000000000          0.5402
C1068      C    0.4948623369    0.8808382910    0.5272297494           0.543
C1069      C    0.4923096375    0.8528487957    0.5341124504          0.5447
C1070      C    0.4948718225    0.8327916294    0.5131335897          0.5436
C1071      C    0.5016504925    0.8411904713    0.4863223065          0.5393
C1072      C    0.5040473278    0.8688935106    0.4797686441          0.5377
C1073      C    0.4895388002    0.8009105450    0.5191000409         -0.4522
N1074      N    0.4869117967    0.8455810620    0.5617695343         -0.4523
H1075      H    0.4919969622    0.8969980793    0.5441442846          0.5446
H1076      H    0.5091391875    0.8741484669    0.4574435785          0.5346
H1077      H    0.5046860310    0.8257618763    0.4689060658          0.5375
C1078      C    0.4814679895    0.7828127143    0.4919985835         -0.4434
N1079      N    0.4685375889    0.7554827143    0.5021756743         -0.4326
N1080      N    0.4547319301    0.7693551717    0.5159756120          -0.421
N1081      N    0.4694392917    0.7914114685    0.5278720401         -0.4348
C1082      C    0.4916093429    0.7345626003    0.5098924043         -0.4539
H1083      H    0.4669322235    0.7946983528    0.4771002678         -0.4293
H1084      H    0.5010421892    0.7781878677    0.4794324473          0.5398
H1085      H    0.5079271863    0.7912783605    0.5303609162          0.5305
H1086      H    0.4790227351    0.8256117420    0.5667300562         -0.4457
H1087      H    0.4781072061    0.8601662180    0.5757360779         -0.4452
O1088      O    0.4916963097    0.7121965139    0.4881141327         -0.4527
C1089      C    0.4657696323    0.6939412971    0.5286026993         -0.4322
C1090      C    0.4850497089    0.7189669930    0.5383967813         -0.4499
C1091      C    0.5014418037    0.6617971450    0.4973153802          0.5376
H1092      H    0.5053736109    0.7114266715    0.5476721572          0.5312
H1093      H    0.4436716944    0.7019120679    0.5260419991         -0.4122
H1094      H    0.4652398444    0.6761348362    0.5440511829         -0.4328
H1095      H    0.4744908479    0.7327596833    0.5544071946         -0.4414
H1096      H    0.4602115240    0.6804712317    0.4839959025         -0.4245
C1097      C    0.4780165240    0.6859705568    0.4985747450         -0.4413
H1098      H    0.5129485906    0.7451006158    0.5103179019           0.527
O1099      O    0.4881622108    0.6358834477    0.4856870581         -0.4499
C1100      C    0.5031366433    0.6218557068    0.5311382174          0.5337
C1101      C    0.5157693810    0.6519256672    0.5260378884          0.5229
H1102      H    0.5124182130    0.6657921689    0.5446807602          0.5248
H1103      H    0.5172552705    0.6083824413    0.5444350634          0.5201
H1104      H    0.4818611028    0.6236385324    0.5414229124         -0.4479
H1105      H    0.5391109439    0.6501329502    0.5226950338          0.5021
H1106      H    0.5214058351    0.6061838377    0.4909727347          0.5198
C1107      C    0.5000000000    0.6108092799    0.5000000000          0.5384
H1108      H    0.5184747472    0.6684040166    0.4822583940          0.5233
C1025      C    0.5000000000    1.3891907201    0.5000000000          0.5402
C1026      C    0.4812258174    1.3808382910    0.4796190064           0.543
C1027      C    0.4772292379    1.3528487957    0.4734614744          0.5447
C1028      C    0.4925272447    1.3327916294    0.4880439425          0.5436
C1029      C    0.5099858543    1.3411904713    0.5094913719          0.5393
C1030      C    0.5138115709    1.3688935106    0.5153273981          0.5377
C1031      C    0.4909258571    1.3009105450    0.4802033287         -0.4522
N1032      N    0.4582676348    1.3455810620    0.4526166049         -0.4523
H1033      H    0.4693690136    1.3969980793    0.4672202937          0.5446
H1034      H    0.5286788620    1.3741484669    0.5327428868          0.5346
H1035      H    0.5221434851    1.3257618763    0.5223261662          0.5375
C1036      C    0.5174843896    1.2828127143    0.4899126713         -0.4434
N1037      N    0.5170421498    1.2554827143    0.4734635722         -0.4326
N1038      N    0.5142165286    1.2693551717    0.4541490605          -0.421
N1039      N    0.4958916313    1.2914114685    0.4588426335         -0.4348
C1040      C    0.4970752734    1.2345626003    0.4873624068         -0.4539
H1041      H    0.5381147545    1.2946983528    0.4871492778         -0.4293
H1042      H    0.5158757249    1.2781878677    0.5131176119          0.5398
H1043      H    0.4709126891    1.2912783605    0.4882291097          0.5305
H1044      H    0.4589994468    1.3256117420    0.4433263670         -0.4457
H1045      H    0.4523220533    1.3601662180    0.4372141630         -0.4452
O1046      O    0.5144925620    1.2121965139    0.5004367608         -0.4527
C1047      C    0.4974968269    1.1939412971    0.4554627504         -0.4322
C1048      C    0.4781277715    1.2189669930    0.4650796672         -0.4499
C1049      C    0.5012924873    1.1617971450    0.5027596119          0.5376
H1050      H    0.4585514850    1.2114266715    0.4758436163          0.5312
H1051      H    0.5127463455    1.2019120679    0.4392662005         -0.4122
H1052      H    0.4854213380    1.1761348362    0.4458129374         -0.4328
H1053      H    0.4715902592    1.2327596833    0.4470495865         -0.4414
H1054      H    0.5365966642    1.1804712317    0.4776407037         -0.4245
C1055      C    0.5142703834    1.1859705568    0.4832172491         -0.4413
H1056      H    0.4839915274    1.2451006158    0.5042253877           0.527
O1057      O    0.5185497537    1.1358834477    0.4990512134         -0.4499
C1058      C    0.4731497915    1.1218557068    0.4839222695          0.5337
C1059      C    0.4696975036    1.1519256672    0.4971010830          0.5229
H1060      H    0.4567444169    1.1657921689    0.4832806438          0.5248
H1061      H    0.4540531179    1.1083824413    0.4873073549          0.5201
H1062      H    0.4776044233    1.1236385324    0.4607149468         -0.4479
H1063      H    0.4584408481    1.1501329502    0.5178204205          0.5021
H1064      H    0.4944589301    1.1061838377    0.5225609805          0.5198
C1065      C    0.5000000000    1.1108092799    0.5000000000          0.5384
H1066      H    0.5031993088    1.1684040166    0.5254134864          0.5233
C983       C    0.5000000000    0.8891907201    0.0000000000          0.5402
C984       C    0.4947552510    0.8808382910    0.0272093264           0.543
C985       C    0.4921754939    0.8528487957    0.0340819314          0.5447
C986       C    0.4948201928    0.8327916294    0.0131133131          0.5436
C987       C    0.5017042897    0.8411904713   -0.0136710944          0.5393
C988       C    0.5041268895    0.8688935106   -0.0202152766          0.5377
C989       C    0.4894637389    0.8009105450    0.0190587372         -0.4522
N990       N    0.4866688879    0.8455810620    0.0617175654         -0.4523
H991       H    0.4918233543    0.8969980793    0.0441124579          0.5446
H992       H    0.5093065397    0.8741484669   -0.0425201373          0.5346
H993       H    0.5048083227    0.8257618763   -0.0310752581          0.5375
C994       C    0.4814996116    0.7828127143   -0.0080742621         -0.4434
N995       N    0.4685292729    0.7554827143    0.0020518799         -0.4326
N996       N    0.4546694301    0.7693551717    0.0157973974          -0.421
N997       N    0.4693298757    0.7914114685    0.0277515943         -0.4348
C998       C    0.4915704898    0.7345626003    0.0098593177         -0.4539
H999       H    0.4670225702    0.7946983528   -0.0230296482         -0.4293
H1000      H    0.5011230967    0.7781878677   -0.0205632935          0.5398
H1001      H    0.5078076809    0.7912783605    0.0303918679          0.5305
H1002      H    0.4787603720    0.8256117420    0.0666470123         -0.4457
H1003      H    0.4778094192    0.8601662180    0.0756493625         -0.4452
O1004      O    0.4917431347    0.7121965139   -0.0119184432         -0.4527
C1005      C    0.4656573702    0.6939412971    0.0284678109         -0.4322
C1006      C    0.4848987663    0.7189669930    0.0383376676         -0.4499
C1007      C    0.5014523543    0.6617971450   -0.0026789268          0.5376
H1008      H    0.5051860204    0.7114266715    0.0476929288          0.5312
H1009      H    0.4435696774    0.7019120679    0.0258201941         -0.4122
H1010      H    0.4650668099    0.6761348362    0.0439140907         -0.4328
H1011      H    0.4742769997    0.7327596833    0.0543064169         -0.4414
H1012      H    0.4602747943    0.6804712317   -0.0161605071         -0.4245
C1013      C    0.4780223012    0.6859705568   -0.0015117300         -0.4413
H1014      H    0.5129078983    0.7451006158    0.0103687637           0.527
O1015      O    0.4882186116    0.6358834477   -0.0143594027         -0.4499
C1016      C    0.5030141169    0.6218557068    0.0311503164          0.5337
C1017      C    0.5156668222    0.6519256672    0.0260997259          0.5229
H1018      H    0.5122423365    0.6657921689    0.0447292694          0.5248
H1019      H    0.5170803232    0.6083824413    0.0445026042          0.5201
H1020      H    0.4816982796    0.6236385324    0.0413512309         -0.4479
H1021      H    0.5390213558    0.6501329502    0.0228487261          0.5021
H1022      H    0.5214411840    0.6061838377   -0.0089429819          0.5198
C1023      C    0.5000000000    0.6108092799    0.0000000000          0.5384
H1024      H    0.5185444022    0.6684040166   -0.0176687865          0.5233
C941       C    0.5000000000    1.3891907201    0.0000000000          0.5402
C942       C    0.5260225537    1.3808382910   -0.0095226851           0.543
C943       C    0.5332419708    1.3528487957   -0.0108522959          0.5447
C944       C    0.5139077032    1.3327916294   -0.0023162849          0.5436
C945       C    0.4874047702    1.3411904713    0.0055824379          0.5393
C946       C    0.4805478027    1.3688935106    0.0068775463          0.5377
C947       C    0.5217629668    1.3009105450   -0.0007883779         -0.4522
N948       N    0.5597648086    1.3455810620   -0.0203701764         -0.4523
H949       H    0.5420203390    1.3969980793   -0.0157180654          0.5446
H950       H    0.4587623002    1.3741484669    0.0139293169          0.5346
H951       H    0.4708888788    1.3257618763    0.0118884084          0.5375
C952       C    0.5026108517    1.2828127143    0.0200160319         -0.4434
N953       N    0.5179718822    1.2554827143    0.0259157930         -0.4326
N954       N    0.5368932620    1.2693551717    0.0307132797          -0.421
N955       N    0.5395861025    1.2914114685    0.0119894954         -0.4348
C956       C    0.5127929725    1.2345626003    0.0021453775         -0.4539
H957       H    0.4972512685    1.2946983528    0.0401287933         -0.4293
H958       H    0.4817970350    1.2781878677    0.0096313264          0.5398
H959       H    0.5220258210    1.2912783605   -0.0223492444          0.5305
H960       H    0.5680640848    1.3256117420   -0.0161315345         -0.4457
H961       H    0.5762697249    1.3601662180   -0.0199543725         -0.4452
O962       O    0.4940387721    1.2121965139    0.0132169919         -0.4527
C963       C    0.5420919778    1.1939412971    0.0147681376         -0.4322
C964       C    0.5406383358    1.2189669930   -0.0068080605         -0.4499
C965       C    0.4969557171    1.1617971450    0.0001353620          0.5376
H966       H    0.5382048340    1.2114266715   -0.0290155290          0.5312
H967       H    0.5512020187    1.2019120679    0.0350630433         -0.4122
H968       H    0.5556349041    1.1761348362    0.0073165963         -0.4328
H969       H    0.5597969907    1.2327596833   -0.0059312367         -0.4414
H970       H    0.5066150192    1.1804712317    0.0423732873         -0.4245
C971       C    0.5100269181    1.1859705568    0.0196154399         -0.4413
H972       H    0.5022368862    1.2451006158   -0.0164049212           0.527
O973       O    0.4937624605    1.1358834477    0.0174953325         -0.4499
C974       C    0.5251454453    1.1218557068   -0.0186315241          0.5337
C975       C    0.5142982023    1.1519256672   -0.0268738985          0.5229
H976       H    0.5320294334    1.1657921689   -0.0335365136          0.5248
H977       H    0.5293427033    1.1083824413   -0.0375662745          0.5201
H978       H    0.5448700408    1.1236385324   -0.0056175352         -0.4479
H979       H    0.4994799245    1.1501329502   -0.0452157054          0.5021
H980       H    0.4812889750    1.1061838377   -0.0137694895          0.5198
C981       C    0.5000000000    1.1108092799    0.0000000000          0.5384
H982       H    0.4753026530    1.1684040166   -0.0067913121          0.5233
C899       C    0.5000000000    1.0000000000   -0.1108092799          0.5402
C900       C    0.5275042224    0.9966276740   -0.1191617090           0.543
C901       C    0.5345371122    0.9945237947   -0.1471512043          0.5447
C902       C    0.5134367484    0.9957287967   -0.1672083706          0.5436
C903       C    0.4862443774    1.0007656847   -0.1588095287          0.5393
C904       C    0.4795498861    1.0027352267   -0.1311064894          0.5377
C905       C    0.5197344540    0.9907913308   -0.1990894550         -0.4522
N906       N    0.5624845466    0.9909193687   -0.1544189380         -0.4523
H907       H    0.5445682452    0.9948582111   -0.1030019207          0.5446
H908       H    0.4569431053    1.0063778977   -0.1258515331          0.5346
H909       H    0.4686687267    1.0026726282   -0.1742381237          0.5375
C910       C    0.4932093984    0.9809909019   -0.2171872857         -0.4434
N911       N    0.5041985604    0.9687431773   -0.2445172857         -0.4326
N912       N    0.5188594404    0.9558554665   -0.2306448283          -0.421
N913       N    0.5297834151    0.9712988555   -0.2085885315         -0.4348
C914       C    0.5104125303    0.9922642388   -0.2654373997         -0.4539
H915       H    0.4792787177    0.9655253131   -0.2053016472         -0.4293
H916       H    0.4794080363    0.9997146696   -0.2218121323          0.5398
H917       H    0.5297869951    1.0098671394   -0.2087216395          0.5305
H918       H    0.5679431225    0.9833663547   -0.1743882580         -0.4457
H919       H    0.5769894223    0.9830330680   -0.1398337820         -0.4452
O920       O    0.4886739177    0.9909476538   -0.2878034861         -0.4527
C921       C    0.5307490251    0.9676839059   -0.3060587029         -0.4322
C922       C    0.5392803617    0.9875550330   -0.2810330070         -0.4499
C923       C    0.4972280513    1.0012658128   -0.3382028550          0.5376
H924       H    0.5472268072    1.0084343911   -0.2885733285          0.5312
H925       H    0.5296176170    0.9454668863   -0.2980879321         -0.4122
H926       H    0.5461995403    0.9681507047   -0.3238651638         -0.4328
H927       H    0.5559379026    0.9780498128   -0.2672403167         -0.4414
H928       H    0.4865930963    0.9592629298   -0.3195287683         -0.4245
C929       C    0.4999943015    0.9779703714   -0.3140294432         -0.4413
H930       H    0.5094620628    1.0135865546   -0.2548993842           0.527
O931       O    0.4864796214    0.9872645016   -0.3641165523         -0.4499
C932       C    0.5308713788    1.0051366414   -0.3781442932          0.5337
C933       C    0.5249676085    1.0174144634   -0.3480743328          0.5229
H934       H    0.5437876799    1.0152715892   -0.3342078311          0.5248
H935       H    0.5432307983    1.0200827611   -0.3916175587          0.5201
H936       H    0.5425056742    0.9845680550   -0.3763614676         -0.4479
H937       H    0.5201275934    1.0404921038   -0.3498670498          0.5021
H938       H    0.4896121249    1.0207796378   -0.3938161623          0.5198
C939       C    0.5000000000    1.0000000000   -0.3891907201          0.5384
H940       H    0.4811047722    1.0172930979   -0.3315959834          0.5233
C857       C    0.5000000000    1.0000000000    0.1108092799          0.5402
C858       C    0.4724758025    0.9967947878    0.1191617090           0.543
C859       C    0.4654302641    0.9947336628    0.1471512043          0.5447
C860       C    0.4865375576    0.9958104859    0.1672083706          0.5436
C861       C    0.5137600194    1.0006821234    0.1588095287          0.5393
C862       C    0.5204663496    1.0026109689    0.1311064894          0.5377
C863       C    0.4802099796    0.9909113612    0.1990894550         -0.4522
N864       N    0.4374614531    0.9912990469    0.1544189380         -0.4523
H865       H    0.4554013473    0.9951289989    0.1030019207          0.5446
H866       H    0.5430948378    1.0061162666    0.1258515331          0.5346
H867       H    0.5313469281    1.0024822830    0.1742381237          0.5375
C868       C    0.5066750213    0.9809500086    0.2171872857         -0.4434
N869       N    0.4956116734    0.9687692545    0.2445172857         -0.4326
N870       N    0.4808727880    0.9559708268    0.2306448283          -0.421
N871       N    0.4700428129    0.9714802796    0.2085885315         -0.4348
C872       C    0.4895406772    0.9923276238    0.2654373997         -0.4539
H873       H    0.5205115121    0.9654000947    0.2053016472         -0.4293
H874       H    0.5205898509    0.9995896060    0.2218121323          0.5398
H875       H    0.4702734841    1.0100478739    0.2087216395          0.5305
H876       H    0.4319571034    0.9837793258    0.1743882580         -0.4457
H877       H    0.4229089462    0.9835009895    0.1398337820         -0.4452
O878       O    0.5112708924    0.9908790298    0.2878034861         -0.4527
C879       C    0.4690552647    0.9678712615    0.3060587029         -0.4322
C880       C    0.4606447761    0.9877938386    0.2810330070         -0.4499
C881       C    0.5027795857    1.0012489536    0.3382028550          0.5376
H882       H    0.4528252917    1.0087210757    0.2885733285          0.5312
H883       H    0.4700517130    0.9456477799    0.2980879321         -0.4122
H884       H    0.4536078697    0.9684318931    0.3238651638         -0.4328
H885       H    0.4439298109    0.9783899662    0.2672403167         -0.4414
H886       H    0.5131592328    0.9591822520    0.3195287683         -0.4245
C887       C    0.4998718976    0.9779707431    0.3140294432         -0.4413
H888       H    0.4906206320    1.0136437735    0.2548993842           0.527
O889       O    0.5134427780    0.9871826181    0.3641165523         -0.4499
C890       C    0.4691603889    1.0053240493    0.3781442932          0.5337
C891       C    0.4751386218    1.0175657873    0.3480743328          0.5229
H892       H    0.4563058824    1.0155372596    0.3342078311          0.5248
H893       H    0.4568919752    1.0203449604    0.3916175587          0.5201
H894       H    0.4574013813    0.9848265052    0.3763614676         -0.4479
H895       H    0.4801187137    1.0406136054    0.3498670498          0.5021
H896       H    0.5105138922    1.0207161619    0.3938161623          0.5198
C897       C    0.5000000000    1.0000000000    0.3891907201          0.5384
H898       H    0.5189999119    1.0171780155    0.3315959834          0.5233
C815       C    0.8891907201    0.5000000000    0.5000000000          0.5402
C816       C    0.8808382910    0.5094792457    0.4739615911           0.543
C817       C    0.8528487957    0.5107968069    0.4667399653          0.5447
C818       C    0.8327916294    0.5022930727    0.4860884508          0.5436
C819       C    0.8411904713    0.4944385887    0.5126045282          0.5393
C820       C    0.8688935106    0.4931549249    0.5194636474          0.5377
C821       C    0.8009105450    0.5007520589    0.4782357479         -0.4522
N822       N    0.8455810620    0.5202704131    0.4402012811         -0.4523
H823       H    0.8969980793    0.5156479204    0.4579534893          0.5446
H824       H    0.8741484669    0.4861395195    0.5412608875          0.5346
H825       H    0.8257618763    0.4881601885    0.5291309199          0.5375
C826       C    0.7828127143    0.4799796390    0.4974225545         -0.4434
N827       N    0.7554827143    0.4740542518    0.4820713909         -0.4326
N828       N    0.7693551717    0.4692251959    0.4631580434          -0.421
N829       N    0.7914114685    0.4879444604    0.4604339606         -0.4348
C830       C    0.7345626003    0.4978332767    0.4872106255         -0.4539
H831       H    0.7946983528    0.4598758496    0.5028156942         -0.4293
H832       H    0.7781878677    0.4903990639    0.5182190123          0.5398
H833       H    0.7912783605    0.5223124568    0.4779369135          0.5305
H834       H    0.8256117420    0.5160179274    0.4319090898         -0.4457
H835       H    0.8601662180    0.5198270666    0.4236970816         -0.4452
O836       O    0.7121965139    0.4867929745    0.5059832760         -0.4527
C837       C    0.6939412971    0.4851616403    0.4579327257         -0.4322
C838       C    0.7189669930    0.5067402341    0.4593503596         -0.4499
C839       C    0.6617971450    0.4998697184    0.5030445046          0.5376
H840       H    0.7114266715    0.5289517328    0.4617467983          0.5312
H841       H    0.7019120679    0.4648515601    0.4488565654         -0.4122
H842       H    0.6761348362    0.4925905710    0.4443773832         -0.4328
H843       H    0.7327596833    0.5058314398    0.4401931946         -0.4414
H844       H    0.6804712317    0.4576157326    0.4934557022         -0.4245
C845       C    0.6859705568    0.4803678545    0.4900058299         -0.4413
H846       H    0.7451006158    0.5164011654    0.4977357406           0.527
O847       O    0.6358834477    0.4825151010    0.5062667268         -0.4499
C848       C    0.6218557068    0.5185895357    0.4748234976          0.5337
C849       C    0.6519256672    0.5268500004    0.4856569707          0.5229
H850       H    0.6657921689    0.5334830165    0.4679146458          0.5248
H851       H    0.6083824413    0.5375172554    0.4705946474          0.5201
H852       H    0.6236385324    0.5055426487    0.4551206472         -0.4479
H853       H    0.6501329502    0.5452165103    0.5004446193          0.5021
H854       H    0.6061838377    0.5138006951    0.5186880205          0.5198
C855       C    0.6108092799    0.5000000000    0.5000000000          0.5384
H856       H    0.6684040166    0.5068325174    0.5246859793          0.5233
C773       C    1.3891907201    0.5000000000    0.5000000000          0.5402
C774       C    1.3808382910    0.4903735165    0.5259843347           0.543
C775       C    1.3528487957    0.4890150986    0.5331983868          0.5447
C776       C    1.3327916294    0.4976282181    0.5138983465          0.5436
C777       C    1.3411904713    0.5056326698    0.4874271540          0.5393
C778       C    1.3688935106    0.5069551388    0.4805754107          0.5377
C779       C    1.3009105450    0.4991247572    0.5217596464         -0.4522
N780       N    1.3455810620    0.4793914227    0.5596830208         -0.4523
H781       H    1.3969980793    0.4841143272    0.5419572625          0.5446
H782       H    1.3741484669    0.5140938145    0.4588182304          0.5346
H783       H    1.3257618763    0.5120045166    0.4709365657          0.5375
C784       C    1.2828127143    0.5200054507    0.5026907289         -0.4434
N785       N    1.2554827143    0.5258438481    0.5180751871         -0.4326
N786       N    1.2693551717    0.5305657682    0.5370155663          -0.421
N787       N    1.2914114685    0.5118313841    0.5396336456         -0.4348
C788       C    1.2345626003    0.5020942947    0.5128014342         -0.4539
H789       H    1.2946983528    0.5401394457    0.4974114725         -0.4293
H790       H    1.2781878677    0.5097039105    0.4818356254          0.5398
H791       H    1.2912783605    0.4775630132    0.5219364340          0.5305
H792       H    1.3256117420    0.4835969026    0.5679991503         -0.4457
H793       H    1.3601662180    0.4797413406    0.5761894654         -0.4452
O794       O    1.2121965139    0.5132406820    0.4940915779         -0.4527
C795       C    1.1939412971    0.5146000014    0.5421505924         -0.4322
C796       C    1.2189669930    0.4930297777    0.5406108363         -0.4499
C797       C    1.1617971450    0.5001475128    0.4969562816          0.5376
H798       H    1.2114266715    0.4708321999    0.5380887084          0.5312
H799       H    1.2019120679    0.5348583809    0.5513415720         -0.4122
H800       H    1.1761348362    0.5070944601    0.5556636665         -0.4328
H801       H    1.2327596833    0.4938301189    0.5597728386         -0.4414
H802       H    1.1804712317    0.5423465446    0.5067841079         -0.4245
C803       C    1.1859705568    0.5195752592    0.5101051372         -0.4413
H804       H    1.2451006158    0.4835862806    0.5021713848           0.527
O805       O    1.1358834477    0.5175200915    0.4938323463         -0.4499
C806       C    1.1218557068    0.4812682512    0.5250708735          0.5337
C807       C    1.1519256672    0.4730692415    0.5141908159          0.5229
H808       H    1.1657921689    0.4663359017    0.5318953105          0.5248
H809       H    1.1083824413    0.4623168975    0.5291925162          0.5201
H810       H    1.1236385324    0.4942034018    0.5448472598         -0.4479
H811       H    1.1501329502    0.4547867309    0.4992994411          0.5021
H812       H    1.1061838377    0.4863053090    0.4812341604          0.5198
C813       C    1.1108092799    0.5000000000    0.5000000000          0.5384
H814       H    1.1684040166    0.4933073264    0.4752757409          0.5233
C731       C    0.6108092799    0.5000000000    0.0000000000          0.5402
C732       C    0.6191617090    0.4958432993    0.0273966544           0.543
C733       C    0.6471512043    0.4935393605    0.0343665693          0.5447
C734       C    0.6672083706    0.4953466739    0.0133092427          0.5436
C735       C    0.6588095287    0.5011583480   -0.0137281337          0.5393
C736       C    0.6311064894    0.5033183369   -0.0203636260          0.5377
C737       C    0.6990894550    0.4902313080    0.0194633224         -0.4522
N738       N    0.6544189380    0.4891379926    0.0621996240         -0.4523
H739       H    0.6030019207    0.4935870671    0.0444031617          0.5446
H740       H    0.6258515331    0.5076053603   -0.0428571144          0.5346
H741       H    0.6742381237    0.5035666211   -0.0312421325          0.5375
C742       C    0.7171872857    0.4811926571   -0.0073308891         -0.4434
N743       N    0.7445172857    0.4686359890    0.0033038898         -0.4326
N744       N    0.7306448283    0.4553347008    0.0175906048          -0.421
N745       N    0.7085885315    0.4704597062    0.0289513135         -0.4348
C746       C    0.7654373997    0.4919699271    0.0101872822         -0.4539
H747       H    0.7053016472    0.4661313578   -0.0216977107         -0.4293
H748       H    0.7218121323    0.5003030651   -0.0205917104          0.5398
H749       H    0.7087216395    0.5090121458    0.0300567254          0.5305
H750       H    0.6743882580    0.4814321188    0.0674401945         -0.4457
H751       H    0.6398337820    0.4808405300    0.0764732805         -0.4452
O752       O    0.7878034861    0.4912749164   -0.0115800704         -0.4527
C753       C    0.8060587029    0.4668186462    0.0298132561         -0.4322
C754       C    0.7810330070    0.4864379362    0.0389087965         -0.4499
C755       C    0.8382028550    0.5013444862   -0.0027346551          0.5376
H756       H    0.7885733285    0.5070817551    0.0474484880          0.5312
H757       H    0.7980879321    0.4446430171    0.0280476055         -0.4122
H758       H    0.8238651638    0.4668438582    0.0452708007         -0.4328
H759       H    0.7672403167    0.4764607167    0.0552879897         -0.4414
H760       H    0.8195287683    0.4596625705   -0.0145652237         -0.4245
C761       C    0.8140294432    0.4779795258   -0.0006350470         -0.4413
H762       H    0.7548993842    0.5133106933    0.0098463466           0.527
O763       O    0.8641165523    0.4876559550   -0.0138786927         -0.4499
C764       C    0.8781442932    0.5042525995    0.0310055238          0.5337
C765       C    0.8480743328    0.5166940713    0.0254549208          0.5229
H766       H    0.8342078311    0.5140144128    0.0442060921          0.5248
H767       H    0.8916175587    0.5188395302    0.0437868852          0.5201
H768       H    0.8763614676    0.4833600354    0.0420474594         -0.4479
H769       H    0.8498670498    0.5399005638    0.0212761720          0.5021
H770       H    0.8938161623    0.5210679211   -0.0097899946          0.5198
C771       C    0.8891907201    0.5000000000    0.0000000000          0.5384
H772       H    0.8315959834    0.5178258456   -0.0183934797          0.5233
C689       C    1.3891907201    0.5000000000    0.0000000000          0.5402
C690       C    1.3808382910    0.4943709911   -0.0271324362           0.543
C691       C    1.3528487957    0.4916943020   -0.0339678720          0.5447
C692       C    1.3327916294    0.4946352671   -0.0130387509          0.5436
C693       C    1.3411904713    0.5018974509    0.0136456259          0.5393
C694       C    1.3688935106    0.5044123539    0.0201548941          0.5377
C695       C    1.3009105450    0.4891952708   -0.0189078314         -0.4522
N696       N    1.3455810620    0.4857974337   -0.0615228701         -0.4523
H697       H    1.3969980793    0.4912003496   -0.0439924156          0.5446
H698       H    1.3741484669    0.5099069134    0.0423842757          0.5346
H699       H    1.3257618763    0.5052472968    0.0310041531          0.5375
C700       C    1.2828127143    0.4816156449    0.0083350805         -0.4434
N701       N    1.2554827143    0.4685034030   -0.0016066272         -0.4326
N702       N    1.2693551717    0.4544505620   -0.0151547693          -0.421
N703       N    1.2914114685    0.4689404897   -0.0273150934         -0.4348
C704       C    1.2345626003    0.4914319058   -0.0097391247         -0.4539
H705       H    1.2946983528    0.4673515447    0.0234937001         -0.4293
H706       H    1.2781878677    0.5014137830    0.0205453547          0.5398
H707       H    1.2912783605    0.5073771094   -0.0304992421          0.5305
H708       H    1.3256117420    0.4778199981   -0.0663399847         -0.4457
H709       H    1.3601662180    0.4767418324   -0.0753279866         -0.4452
O710       O    1.2121965139    0.4919125066    0.0120340169         -0.4527
C711       C    1.1939412971    0.4652582229   -0.0279793032         -0.4322
C712       C    1.2189669930    0.4843581190   -0.0381202778         -0.4499
C713       C    1.1617971450    0.5014900934    0.0026581202          0.5376
H714       H    1.2114266715    0.5045110457   -0.0477614985          0.5312
H715       H    1.2019120679    0.4432101805   -0.0250195950         -0.4122
H716       H    1.1761348362    0.4644492860   -0.0434156869         -0.4328
H717       H    1.2327596833    0.4735115904   -0.0539372211         -0.4414
H718       H    1.1804712317    0.4605073027    0.0167206705         -0.4245
C719       C    1.1859705568    0.4780458773    0.0018223795         -0.4413
H720       H    1.2451006158    0.5127599762   -0.0105502656           0.527
O721       O    1.1358834477    0.4884228551    0.0145245749         -0.4499
C722       C    1.1218557068    0.5025732991   -0.0311898260          0.5337
C723       C    1.1519256672    0.5152961628   -0.0263186705          0.5229
H724       H    1.1657921689    0.5116085672   -0.0448979232          0.5248
H725       H    1.1083824413    0.5164492755   -0.0447396977          0.5201
H726       H    1.1236385324    0.4811153357   -0.0410882796         -0.4479
H727       H    1.1501329502    0.5386943353   -0.0233982671          0.5021
H728       H    1.1061838377    0.5215655083    0.0086388742          0.5198
C729       C    1.1108092799    0.5000000000    0.0000000000          0.5384
H730       H    1.1684040166    0.5187924134    0.0174047714          0.5233
C647       C    1.0000000000    0.5000000000   -0.1108092799          0.5402
C648       C    0.9724758025    0.5032052122   -0.1191617090           0.543
C649       C    0.9654302641    0.5052663372   -0.1471512043          0.5447
C650       C    0.9865375576    0.5041895141   -0.1672083706          0.5436
C651       C    1.0137600194    0.4993178766   -0.1588095287          0.5393
C652       C    1.0204663496    0.4973890311   -0.1311064894          0.5377
C653       C    0.9802099796    0.5090886388   -0.1990894550         -0.4522
N654       N    0.9374614531    0.5087009531   -0.1544189380         -0.4523
H655       H    0.9554013473    0.5048710011   -0.1030019207          0.5446
H656       H    1.0430948378    0.4938837334   -0.1258515331          0.5346
H657       H    1.0313469281    0.4975177170   -0.1742381237          0.5375
C658       C    1.0066750213    0.5190499914   -0.2171872857         -0.4434
N659       N    0.9956116734    0.5312307455   -0.2445172857         -0.4326
N660       N    0.9808727880    0.5440291732   -0.2306448283          -0.421
N661       N    0.9700428129    0.5285197204   -0.2085885315         -0.4348
C662       C    0.9895406772    0.5076723762   -0.2654373997         -0.4539
H663       H    1.0205115121    0.5345999053   -0.2053016472         -0.4293
H664       H    1.0205898509    0.5004103940   -0.2218121323          0.5398
H665       H    0.9702734841    0.4899521261   -0.2087216395          0.5305
H666       H    0.9319571034    0.5162206742   -0.1743882580         -0.4457
H667       H    0.9229089462    0.5164990105   -0.1398337820         -0.4452
O668       O    1.0112708924    0.5091209702   -0.2878034861         -0.4527
C669       C    0.9690552647    0.5321287385   -0.3060587029         -0.4322
C670       C    0.9606447761    0.5122061614   -0.2810330070         -0.4499
C671       C    1.0027795857    0.4987510464   -0.3382028550          0.5376
H672       H    0.9528252917    0.4912789243   -0.2885733285          0.5312
H673       H    0.9700517130    0.5543522201   -0.2980879321         -0.4122
H674       H    0.9536078697    0.5315681069   -0.3238651638         -0.4328
H675       H    0.9439298109    0.5216100338   -0.2672403167         -0.4414
H676       H    1.0131592328    0.5408177480   -0.3195287683         -0.4245
C677       C    0.9998718976    0.5220292569   -0.3140294432         -0.4413
H678       H    0.9906206320    0.4863562265   -0.2548993842           0.527
O679       O    1.0134427780    0.5128173819   -0.3641165523         -0.4499
C680       C    0.9691603889    0.4946759507   -0.3781442932          0.5337
C681       C    0.9751386218    0.4824342127   -0.3480743328          0.5229
H682       H    0.9563058824    0.4844627404   -0.3342078311          0.5248
H683       H    0.9568919752    0.4796550396   -0.3916175587          0.5201
H684       H    0.9574013813    0.5151734948   -0.3763614676         -0.4479
H685       H    0.9801187137    0.4593863946   -0.3498670498          0.5021
H686       H    1.0105138922    0.4792838381   -0.3938161623          0.5198
C687       C    1.0000000000    0.5000000000   -0.3891907201          0.5384
H688       H    1.0189999119    0.4828219845   -0.3315959834          0.5233
C605       C    1.0000000000    0.5000000000    0.3891907201          0.5402
C606       C    0.9724746938    0.5031956772    0.3808382910           0.543
C607       C    0.9654284418    0.5052543614    0.3528487957          0.5447
C608       C    0.9865361071    0.5041848502    0.3327916294          0.5436
C609       C    1.0137602549    0.4993226433    0.3411904713          0.5393
C610       C    1.0204672528    0.4973961211    0.3688935106          0.5377
C611       C    0.9802068323    0.5090817827    0.3009105450         -0.4522
N612       N    0.9374584427    0.5086792884    0.3455810620         -0.4523
H613       H    0.9553996626    0.5048555512    0.3969980793          0.5446
H614       H    1.0430969539    0.4938986625    0.3741484669          0.5346
H615       H    1.0313477861    0.4975285762    0.3257618763          0.5375
C616       C    1.0066684217    0.5190523026    0.2828127143         -0.4434
N617       N    0.9956008549    0.5312292234    0.2554827143         -0.4326
N618       N    0.9808575368    0.5440225447    0.2693551717          -0.421
N619       N    0.9700329351    0.5285093411    0.2914114685         -0.4348
C620       C    0.9895380200    0.5076687525    0.2345626003         -0.4539
H621       H    1.0204995250    0.5346070087    0.2946983528         -0.4293
H622       H    1.0205897075    0.5004175266    0.2781878677          0.5398
H623       H    0.9702769667    0.4899418290    0.2912783605          0.5305
H624       H    0.9319514884    0.5161971022    0.3256117420         -0.4457
H625       H    0.9229032353    0.5164723041    0.3601662180         -0.4452
O626       O    1.0112677321    0.5091248740    0.2121965139         -0.4527
C627       C    0.9690441367    0.5321180169    0.1939412971         -0.4322
C628       C    0.9606405501    0.5121925274    0.2189669930         -0.4499
C629       C    1.0027800182    0.4987520094    0.1617971450          0.5376
H630       H    0.9528283156    0.4912625828    0.2114266715          0.5312
H631       H    0.9700328864    0.5543418424    0.2019120679         -0.4122
H632       H    0.9535969368    0.5315520342    0.1761348362         -0.4328
H633       H    0.9439223283    0.5215906090    0.2327596833         -0.4414
H634       H    1.0131450921    0.5408223041    0.1804712317         -0.4245
C635       C    0.9998642664    0.5220292112    0.1859705568         -0.4413
H636       H    0.9906253590    0.4863529782    0.2451006158           0.527
O637       O    1.0134383371    0.5128220379    0.1358834477         -0.4499
C638       C    0.9691622351    0.4946652678    0.1218557068          0.5337
C639       C    0.9751447083    0.4824256015    0.1519256672          0.5229
H640       H    0.9563112674    0.4844476051    0.1657921689          0.5248
H641       H    0.9568990256    0.4796401076    0.1083824413          0.5201
H642       H    0.9573961275    0.5151587371    0.1236385324         -0.4479
H643       H    0.9801327840    0.4593795099    0.1501329502          0.5021
H644       H    1.0105210680    0.4792874815    0.1061838377          0.5198
C645       C    1.0000000000    0.5000000000    0.1108092799          0.5384
H646       H    1.0190058615    0.4828285674    0.1684040166          0.5233
C563       C    1.0000000000   -0.3891907201    0.5000000000          0.5402
C564       C    0.9724758025   -0.3808382910    0.5032052122           0.543
C565       C    0.9654302641   -0.3528487957    0.5052663372          0.5447
C566       C    0.9865375576   -0.3327916294    0.5041895141          0.5436
C567       C    1.0137600194   -0.3411904713    0.4993178766          0.5393
C568       C    1.0204663496   -0.3688935106    0.4973890311          0.5377
C569       C    0.9802099796   -0.3009105450    0.5090886388         -0.4522
N570       N    0.9374614531   -0.3455810620    0.5087009531         -0.4523
H571       H    0.9554013473   -0.3969980793    0.5048710011          0.5446
H572       H    1.0430948378   -0.3741484669    0.4938837334          0.5346
H573       H    1.0313469281   -0.3257618763    0.4975177170          0.5375
C574       C    1.0066750213   -0.2828127143    0.5190499914         -0.4434
N575       N    0.9956116734   -0.2554827143    0.5312307455         -0.4326
N576       N    0.9808727880   -0.2693551717    0.5440291732          -0.421
N577       N    0.9700428129   -0.2914114685    0.5285197204         -0.4348
C578       C    0.9895406772   -0.2345626003    0.5076723762         -0.4539
H579       H    1.0205115121   -0.2946983528    0.5345999053         -0.4293
H580       H    1.0205898509   -0.2781878677    0.5004103940          0.5398
H581       H    0.9702734841   -0.2912783605    0.4899521261          0.5305
H582       H    0.9319571034   -0.3256117420    0.5162206742         -0.4457
H583       H    0.9229089462   -0.3601662180    0.5164990105         -0.4452
O584       O    1.0112708924   -0.2121965139    0.5091209702         -0.4527
C585       C    0.9690552647   -0.1939412971    0.5321287385         -0.4322
C586       C    0.9606447761   -0.2189669930    0.5122061614         -0.4499
C587       C    1.0027795857   -0.1617971450    0.4987510464          0.5376
H588       H    0.9528252917   -0.2114266715    0.4912789243          0.5312
H589       H    0.9700517130   -0.2019120679    0.5543522201         -0.4122
H590       H    0.9536078697   -0.1761348362    0.5315681069         -0.4328
H591       H    0.9439298109   -0.2327596833    0.5216100338         -0.4414
H592       H    1.0131592328   -0.1804712317    0.5408177480         -0.4245
C593       C    0.9998718976   -0.1859705568    0.5220292569         -0.4413
H594       H    0.9906206320   -0.2451006158    0.4863562265           0.527
O595       O    1.0134427780   -0.1358834477    0.5128173819         -0.4499
C596       C    0.9691603889   -0.1218557068    0.4946759507          0.5337
C597       C    0.9751386218   -0.1519256672    0.4824342127          0.5229
H598       H    0.9563058824   -0.1657921689    0.4844627404          0.5248
H599       H    0.9568919752   -0.1083824413    0.4796550396          0.5201
H600       H    0.9574013813   -0.1236385324    0.5151734948         -0.4479
H601       H    0.9801187137   -0.1501329502    0.4593863946          0.5021
H602       H    1.0105138922   -0.1061838377    0.4792838381          0.5198
C603       C    1.0000000000   -0.1108092799    0.5000000000          0.5384
H604       H    1.0189999119   -0.1684040166    0.4828219845          0.5233
C521       C    1.0000000000    0.1108092799    0.5000000000          0.5402
C522       C    1.0031330825    0.1191617090    0.4724674987           0.543
C523       C    1.0027268656    0.1471512043    0.4651379124          0.5447
C524       C    0.9989792143    0.1672083706    0.4859377320          0.5436
C525       C    0.9975375283    0.1588095287    0.5135550603          0.5393
C526       C    0.9978920060    0.1311064894    0.5205242536          0.5377
C527       C    0.9956460942    0.1990894550    0.4786624329         -0.4522
N528       N    1.0057375770    0.1544189380    0.4371203002         -0.4523
H529       H    1.0053907753    0.1030019207    0.4554611853          0.5446
H530       H    0.9961636327    0.1258515331    0.5433573067          0.5346
H531       H    0.9952942439    0.1742381237    0.5310909551          0.5375
C532       C    0.9799315600    0.2171872857    0.5021715885         -0.4434
N533       N    0.9705834275    0.2445172857    0.4886297696         -0.4326
N534       N    0.9614689885    0.2306448283    0.4713682084          -0.421
N535       N    0.9790336590    0.2085885315    0.4643458270         -0.4348
C536       C    0.9949050513    0.2654373997    0.4880708640         -0.4539
H537       H    0.9616443029    0.2053016472    0.5121126412         -0.4293
H538       H    0.9949216179    0.2218121323    0.5199579663          0.5398
H539       H    1.0165399115    0.2087216395    0.4733343509          0.5305
H540       H    0.9996653492    0.1743882580    0.4300512040         -0.4457
H541       H    1.0014503475    0.1398337820    0.4211764983         -0.4452
O542       O    0.9885564984    0.2878034861    0.5089034479         -0.4527
C543       C    0.9757434575    0.3060587029    0.4625640196         -0.4322
C544       C    0.9970560145    0.2810330070    0.4589006451         -0.4499
C545       C    1.0005846633    0.3382028550    0.5029906772          0.5376
H546       H    1.0192126531    0.2885733285    0.4560411075          0.5312
H547       H    0.9538749131    0.2980879321    0.4584844597         -0.4122
H548       H    0.9797996037    0.3238651638    0.4476481221         -0.4328
H549       H    0.9916963630    0.2672403167    0.4404860581         -0.4414
H550       H    0.9572598099    0.3195287683    0.5035397887         -0.4245
C551       C    0.9785761360    0.3140294432    0.4948694422         -0.4413
H552       H    1.0154181691    0.2548993842    0.4939663313           0.527
O553       O    0.9844632573    0.3641165523    0.5101785649         -0.4499
C554       C    1.0121925954    0.3781442932    0.4711769584          0.5337
C555       C    1.0227556298    0.3480743328    0.4797805460          0.5229
H556       H    1.0250596159    0.3342078311    0.4609795183          0.5248
H557       H    1.0296083672    0.3916175587    0.4626427543          0.5201
H558       H    0.9949033174    0.3763614676    0.4550678168         -0.4479
H559       H    1.0440688702    0.3498670498    0.4898676179          0.5021
H560       H    1.0177851099    0.3938161623    0.5149462758          0.5198
C561       C    1.0000000000    0.3891907201    0.5000000000          0.5384
H562       H    1.0124112049    0.3315959834    0.5224063130          0.5233
C479       C    0.8891907201   -0.0000000000    0.5000000000          0.5402
C480       C    0.8808382910   -0.0268038729    0.4929709722           0.543
C481       C    0.8528487957   -0.0341164364    0.4923273397          0.5447
C482       C    0.8327916294   -0.0140640533    0.4990041143          0.5436
C483       C    0.8411904713    0.0130650862    0.5043711495          0.5393
C484       C    0.8688935106    0.0200135618    0.5050145757          0.5377
C485       C    0.8009105450   -0.0217404590    0.5012651897         -0.4522
N486       N    0.8455810620   -0.0614179162    0.4853502216         -0.4523
H487       H    0.8969980793   -0.0433141235    0.4883101250          0.5446
H488       H    0.8741484669    0.0423664651    0.5099828047          0.5346
H489       H    0.8257618763    0.0301015566    0.5090932898          0.5375
C490       C    0.7828127143   -0.0007137407    0.5201729684         -0.4434
N491       N    0.7554827143   -0.0154507109    0.5274934975         -0.4326
N492       N    0.7693551717   -0.0338360326    0.5340520371          -0.421
N493       N    0.7914114685   -0.0382806711    0.5156651756         -0.4348
C494       C    0.7345626003   -0.0125339928    0.5033409301         -0.4539
H495       H    0.7946983528    0.0065166234    0.5396914247         -0.4293
H496       H    0.7781878677    0.0190292892    0.5078737879          0.5398
H497       H    0.7912783605   -0.0240331685    0.4798249579          0.5305
H498       H    0.8256117420   -0.0692810101    0.4903518038         -0.4457
H499       H    0.8601662180   -0.0778102721    0.4873189324         -0.4452
O500       O    0.7121965139    0.0071797551    0.5125966753         -0.4527
C501       C    0.6939412971   -0.0405136568    0.5186675144         -0.4322
C502       C    0.7189669930   -0.0410989470    0.4970503260         -0.4499
C503       C    0.6617971450    0.0030434971    0.4998479900          0.5376
H504       H    0.7114266715   -0.0407682000    0.4747123718          0.5312
H505       H    0.7019120679   -0.0476714173    0.5397303373         -0.4122
H506       H    0.6761348362   -0.0546982942    0.5125248453         -0.4328
H507       H    0.7327596833   -0.0600898134    0.4997279877         -0.4414
H508       H    0.6804712317   -0.0025940594    0.5428079994         -0.4245
C509       C    0.6859705568   -0.0081345659    0.5204727479         -0.4413
H510       H    0.7451006158   -0.0037722758    0.4838787397           0.527
O511       O    0.6358834477    0.0078578559    0.5168299631         -0.4499
C512       C    0.6218557068   -0.0267887133    0.4838200139          0.5337
C513       C    0.6519256672   -0.0167661324    0.4745924851          0.5229
H514       H    0.6657921689   -0.0350461340    0.4696297706          0.5248
H515       H    0.6083824413   -0.0327509526    0.4653648398          0.5201
H516       H    0.6236385324   -0.0451996881    0.4986341822         -0.4479
H517       H    0.6501329502   -0.0037415366    0.4549363629          0.5021
H518       H    0.6061838377    0.0173307435    0.4845291685          0.5198
C519       C    0.6108092799   -0.0000000000    0.5000000000          0.5384
H520       H    0.6684040166    0.0239477875    0.4909124073          0.5233
C437       C    1.3891907201   -0.0000000000    0.5000000000          0.5402
C438       C    1.3808382910    0.0246121406    0.5127317466           0.543
C439       C    1.3528487957    0.0316059359    0.5149621443          0.5447
C440       C    1.3327916294    0.0135040039    0.5040535494          0.5436
C441       C    1.3411904713   -0.0117896917    0.4928721255          0.5393
C442       C    1.3688935106   -0.0184282934    0.4907217120          0.5377
C443       C    1.3009105450    0.0214893096    0.5035295658         -0.4522
N444       N    1.3455810620    0.0567149643    0.5277522838         -0.4523
H445       H    1.3969980793    0.0396997819    0.5208972197          0.5446
H446       H    1.3741484669   -0.0391492277    0.4809760223          0.5346
H447       H    1.3257618763   -0.0273773321    0.4845315380          0.5375
C448       C    1.2828127143    0.0051169137    0.4804737286         -0.4434
N449       N    1.2554827143    0.0210998628    0.4765604466         -0.4326
N450       N    1.2693551717    0.0404755164    0.4741901006          -0.421
N451       N    1.2914114685    0.0407830012    0.4931040358         -0.4348
C452       C    1.2345626003    0.0129614610    0.4994868544         -0.4539
H453       H    1.2946983528    0.0023393764    0.4598452631         -0.4293
H454       H    1.2781878677   -0.0168414014    0.4881476761          0.5398
H455       H    1.2912783605    0.0190280793    0.5249511064          0.5305
H456       H    1.3256117420    0.0654829505    0.5245953093         -0.4457
H457       H    1.3601662180    0.0731403172    0.5294234929         -0.4452
O458       O    1.2121965139   -0.0042449342    0.4861361749         -0.4527
C459       C    1.1939412971    0.0436196203    0.4906639835         -0.4322
C460       C    1.2189669930    0.0394536920    0.5118840315         -0.4499
C461       C    1.1617971450   -0.0030028364    0.4994813913          0.5376
H462       H    1.2114266715    0.0342360484    0.5336065955          0.5312
H463       H    1.2019120679    0.0552189295    0.4716815687         -0.4122
H464       H    1.1761348362    0.0561134584    0.4997656499         -0.4328
H465       H    1.2327596833    0.0585697528    0.5134329342         -0.4414
H466       H    1.1804712317    0.0119115661    0.4588008671         -0.4245
C467       C    1.1859705568    0.0124230702    0.4818073670         -0.4413
H468       H    1.2451006158    0.0001479267    0.5165560628           0.527
O469       O    1.1358834477   -0.0039789100    0.4818571823         -0.4499
C470       C    1.1218557068    0.0225920920    0.5216569733          0.5337
C471       C    1.1519256672    0.0107910687    0.5284639745          0.5229
H472       H    1.1657921689    0.0275392997    0.5373117852          0.5248
H473       H    1.1083824413    0.0243653236    0.5409701138          0.5201
H474       H    1.1236385324    0.0438018384    0.5112372692         -0.4479
H475       H    1.1501329502   -0.0062242336    0.5447882731          0.5021
H476       H    1.1061838377   -0.0202996647    0.5112971194          0.5198
C477       C    1.1108092799   -0.0000000000    0.5000000000          0.5384
H478       H    1.1684040166   -0.0253571200    0.5036190236          0.5233
C395       C    0.0000000000   -0.1108092799   -0.0000000000          0.5402
C396       C   -0.0169367424   -0.1191617090   -0.0219317484           0.543
C397       C   -0.0203844995   -0.1471512043   -0.0284125523          0.5447
C398       C   -0.0064081905   -0.1672083706   -0.0125588407          0.5436
C399       C    0.0091254852   -0.1588095287    0.0103212860          0.5393
C400       C    0.0124308929   -0.1311064894    0.0164669829          0.5377
C401       C   -0.0073238707   -0.1990894550   -0.0205087587         -0.4522
N402       N   -0.0374677448   -0.1544189380   -0.0508226773         -0.4523
H403       H   -0.0276741056   -0.1030019207   -0.0353116178          0.5446
H404       H    0.0257325216   -0.1258515331    0.0351057131          0.5346
H405       H    0.0201247404   -0.1742381237    0.0241616733          0.5375
C406       C    0.0182930113   -0.2171872857   -0.0085336872         -0.4434
N407       N    0.0192783589   -0.2445172857   -0.0249592017         -0.4326
N408       N    0.0181376909   -0.2306448283   -0.0444459503          -0.421
N409       N   -0.0005250957   -0.2085885315   -0.0413585757         -0.4348
C410       C   -0.0018182021   -0.2654373997   -0.0128435560         -0.4539
H411       H    0.0390852655   -0.2053016472   -0.0094982943         -0.4293
H412       H    0.0146788363   -0.2218121323    0.0144444505          0.5398
H413       H   -0.0279574318   -0.2087216395   -0.0142480708          0.5305
H414       H   -0.0359333451   -0.1743882580   -0.0600145045         -0.4457
H415       H   -0.0420557537   -0.1398337820   -0.0666825427         -0.4452
O416       O    0.0144001447   -0.2878034861    0.0016914330         -0.4527
C417       C    0.0013670491   -0.3060587029   -0.0445865861         -0.4322
C418       C   -0.0187627548   -0.2810330070   -0.0366849159         -0.4499
C419       C    0.0010483995   -0.3382028550    0.0028612655          0.5376
H420       H   -0.0391984424   -0.2885733285   -0.0276584957          0.5312
H421       H    0.0179631923   -0.2980879321   -0.0594002311         -0.4122
H422       H   -0.0098264697   -0.3238651638   -0.0552468608         -0.4328
H423       H   -0.0237126842   -0.2672403167   -0.0552138413         -0.4414
H424       H    0.0383971593   -0.3195287683   -0.0191026730         -0.4245
C425       C    0.0156715098   -0.3140294432   -0.0154825176         -0.4413
H426       H   -0.0163144964   -0.2548993842    0.0028217557           0.527
O427       O    0.0185621724   -0.3641165523    0.0006628069         -0.4499
C428       C   -0.0253554038   -0.3781442932   -0.0183447707          0.5337
C429       C   -0.0299371274   -0.3480743328   -0.0055148360          0.5229
H430       H   -0.0416434014   -0.3342078311   -0.0204061133          0.5248
H431       H   -0.0446736327   -0.3916175587   -0.0166278610          0.5201
H432       H   -0.0189057685   -0.3763614676   -0.0410785733         -0.4479
H433       H   -0.0429475048   -0.3498670498    0.0141507002          0.5021
H434       H   -0.0074759542   -0.3938161623    0.0219957133          0.5198
C435       C    0.0000000000   -0.3891907201    0.0000000000          0.5384
H436       H    0.0009842471   -0.3315959834    0.0255951583          0.5233
C353       C    0.0000000000    0.3891907201    0.0000000000          0.5402
C354       C    0.0272920448    0.3808382910   -0.0047957405           0.543
C355       C    0.0346327770    0.3528487957   -0.0048344287          0.5447
C356       C    0.0140982827    0.3327916294    0.0001667637          0.5436
C357       C   -0.0133809285    0.3411904713    0.0032793565          0.5393
C358       C   -0.0203587948    0.3688935106    0.0033478497          0.5377
C359       C    0.0215621921    0.3009105450    0.0030528895         -0.4522
N360       N    0.0624164566    0.3455810620   -0.0095374198         -0.4523
H361       H    0.0441302930    0.3969980793   -0.0080798336          0.5446
H362       H   -0.0430451504    0.3741484669    0.0064566852          0.5346
H363       H   -0.0307486581    0.3257618763    0.0065811592          0.5375
C364       C   -0.0009514893    0.2828127143    0.0201631532         -0.4434
N365       N    0.0131319216    0.2554827143    0.0286734984         -0.4326
N366       N    0.0309140776    0.2693551717    0.0367251704          -0.421
N367       N    0.0368591689    0.2914114685    0.0187672368         -0.4348
C368       C    0.0122159572    0.2345626003    0.0043627031         -0.4539
H369       H   -0.0097661008    0.2946983528    0.0390192113         -0.4293
H370       H   -0.0196135485    0.2781878677    0.0062784631          0.5398
H371       H    0.0256143580    0.2912783605   -0.0181254015          0.5305
H372       H    0.0698405267    0.3256117420   -0.0039047247         -0.4457
H373       H    0.0785907555    0.3601662180   -0.0062242324         -0.4452
O374       O   -0.0081936317    0.2121965139    0.0119620029         -0.4527
C375       C    0.0388370815    0.1939412971    0.0219434177         -0.4322
C376       C    0.0412022243    0.2189669930    0.0004480345         -0.4499
C377       C   -0.0030206106    0.1617971450   -0.0004023597          0.5376
H378       H    0.0427138577    0.2114266715   -0.0218411681          0.5312
H379       H    0.0442343353    0.2019120679    0.0435245598         -0.4122
H380       H    0.0534797728    0.1761348362    0.0169908514         -0.4328
H381       H    0.0599077543    0.2327596833    0.0046819483         -0.4414
H382       H   -0.0009433114    0.1804712317    0.0428761486         -0.4245
C383       C    0.0064193735    0.1859705568    0.0210735904         -0.4413
H384       H    0.0050882694    0.2451006158   -0.0157554629           0.527
O385       O   -0.0092183630    0.1358834477    0.0161249912         -0.4499
C386       C    0.0280312246    0.1218557068   -0.0139168085          0.5337
C387       C    0.0188033490    0.1519256672   -0.0239390701          0.5229
H388       H    0.0374302080    0.1657921689   -0.0273781276          0.5248
H389       H    0.0354943832    0.1083824413   -0.0318177306          0.5201
H390       H    0.0451584581    0.1236385324    0.0023645136         -0.4479
H391       H    0.0074432738    0.1501329502   -0.0446018852          0.5021
H392       H   -0.0159965512    0.1061838377   -0.0168467102          0.5198
C393       C   -0.0000000000    0.1108092799    0.0000000000          0.5384
H394       H   -0.0231172305    0.1684040166   -0.0110306174          0.5233
C311       C   -0.3891907201   -0.0000000000    0.0000000000          0.5402
C312       C   -0.3808382910   -0.0248002785    0.0123612709 0.5406000000000001
C313       C   -0.3528487957   -0.0318267311    0.0144865501          0.5447
C314       C   -0.3327916294   -0.0135632663    0.0038506092          0.5436
C315       C   -0.3411904713    0.0118952445   -0.0069502938          0.5393
C316       C   -0.3688935106    0.0185653440   -0.0090009237          0.5377
C317       C   -0.3009105450   -0.0215398175    0.0032069497         -0.4522
N318       N   -0.3455810620   -0.0571247172    0.0268987569         -0.4523
H319       H   -0.3969980793   -0.0400086601    0.0202995959          0.5446
H320       H   -0.3741484669    0.0394300796   -0.0184348198          0.5346
H321       H   -0.3257618763    0.0276061946   -0.0150562163          0.5375
C322       C   -0.2828127143   -0.0048235536   -0.0196008013         -0.4434
N323       N   -0.2554827143   -0.0207460286   -0.0237532981         -0.4326
N324       N   -0.2693551717   -0.0400839620   -0.0264139039          -0.421
N325       N   -0.2914114685   -0.0406750154   -0.0075067057         -0.4348
C326       C   -0.2345626003   -0.0129523095   -0.0007074373         -0.4539
H327       H   -0.2946983528   -0.0017370171   -0.0401853001         -0.4293
H328       H   -0.2781878677    0.0170172266   -0.0115984647          0.5398
H329       H   -0.2912783605   -0.0194000671    0.0246629867          0.5305
H330       H   -0.3256117420   -0.0658443807    0.0236106665         -0.4457
H331       H   -0.3601662180   -0.0735732822    0.0283234897         -0.4452
O332       O   -0.2121965139    0.0044523367   -0.0137986162         -0.4527
C333       C   -0.1939412971   -0.0434747285   -0.0099890171         -0.4322
C334       C   -0.2189669930   -0.0396274505    0.0112911109         -0.4499
C335       C   -0.1617971450    0.0030102751   -0.0004735246          0.5376
H336       H   -0.2114266715   -0.0347361103    0.0330894683          0.5312
H337       H   -0.2019120679   -0.0547881037   -0.0291432226         -0.4122
H338       H   -0.1761348362   -0.0561036361   -0.0010757116         -0.4328
H339       H   -0.2327596833   -0.0587645871    0.0125532055         -0.4414
H340       H   -0.1804712317   -0.0112924706   -0.0413731080         -0.4245
C341       C   -0.1859705568   -0.0121488859   -0.0183768643         -0.4413
H342       H   -0.2451006158   -0.0003961583    0.0165519835           0.527
O343       O   -0.1358834477    0.0042505034   -0.0180811167         -0.4499
C344       C   -0.1218557068   -0.0229142855    0.0213157836          0.5337
C345       C   -0.1519256672   -0.0112166559    0.0282989689          0.5229
H346       H   -0.1657921689   -0.0280956716    0.0368946552          0.5248
H347       H   -0.1083824413   -0.0249769067    0.0406001644          0.5201
H348       H   -0.1236385324   -0.0439654102    0.0105792235         -0.4479
H349       H   -0.1501329502    0.0055519605    0.0448765665          0.5021
H350       H   -0.1061838377    0.0201279890    0.0116002307          0.5198
C351       C   -0.1108092799   -0.0000000000    0.0000000000          0.5384
H352       H   -0.1684040166    0.0253000042    0.0039988316          0.5233
C269       C    0.1108092799   -0.0000000000    0.0000000000          0.5402
C270       C    0.1191617090   -0.0134233191   -0.0242418922           0.543
C271       C    0.1471512043   -0.0158507903   -0.0311697513          0.5447
C272       C    0.1672083706   -0.0044341710   -0.0133838526          0.5436
C273       C    0.1588095287    0.0074587388    0.0115832051          0.5393
C274       C    0.1311064894    0.0097962036    0.0181582769          0.5377
C275       C    0.1990894550   -0.0041364304   -0.0213807906         -0.4522
N276       N    0.1544189380   -0.0293465439   -0.0559066793         -0.4523
H277       H    0.1030019207   -0.0220125929   -0.0390923551          0.5446
H278       H    0.1258515331    0.0201245175    0.0385950457          0.5346
H279       H    0.1742381237    0.0162372098    0.0269285100          0.5375
C280       C    0.2171872857    0.0193736073   -0.0056675762         -0.4434
N281       N    0.2445172857    0.0228329061   -0.0217548908         -0.4326
N282       N    0.2306448283    0.0246538527   -0.0411898760          -0.421
N283       N    0.2085885315    0.0057387927   -0.0409618575         -0.4348
C284       C    0.2654373997    0.0001460514   -0.0129707925         -0.4539
H285       H    0.2053016472    0.0400724283   -0.0034750636         -0.4293
H286       H    0.2218121323    0.0123242893    0.0164991599          0.5398
H287       H    0.2087216395   -0.0254797196   -0.0183141859          0.5305
H288       H    0.1743882580   -0.0264390220   -0.0647605139         -0.4457
H289       H    0.1398337820   -0.0314820212   -0.0722781451         -0.4452
O290       O    0.2878034861    0.0139784275    0.0038508022         -0.4527
C291       C    0.3060587029    0.0080975736   -0.0438664084         -0.4322
C292       C    0.2810330070   -0.0129960504   -0.0391014922         -0.4499
C293       C    0.3382028550    0.0006033995    0.0029869534          0.5376
H294       H    0.2885733285   -0.0345622189   -0.0332710579          0.5312
H295       H    0.2980879321    0.0267440507   -0.0559983882         -0.4122
H296       H    0.3238651638   -0.0013540978   -0.0560976074         -0.4328
H297       H    0.2672403167   -0.0150854338   -0.0581660498         -0.4414
H298       H    0.3195287683    0.0408454543   -0.0130729806         -0.4245
C299       C    0.3140294432    0.0178336944   -0.0129330551         -0.4413
H300       H    0.2548993842   -0.0165536160    0.0003207704           0.527
O301       O    0.3641165523    0.0182481754    0.0034637629         -0.4499
C302       C    0.3781442932   -0.0222877897   -0.0219700146          0.5337
C303       C    0.3480743328   -0.0287580223   -0.0099810402          0.5229
H304       H    0.3342078311   -0.0380763651   -0.0264721130          0.5248
H305       H    0.3916175587   -0.0416433848   -0.0231958556          0.5201
H306       H    0.3763614676   -0.0124726264   -0.0434662036         -0.4479
H307       H    0.3498670498   -0.0445941426    0.0074895216          0.5021
H308       H    0.3938161623   -0.0107179880    0.0206113083          0.5198
C309       C    0.3891907201   -0.0000000000    0.0000000000          0.5384
H310       H    0.3315959834   -0.0028998118    0.0254494000          0.5233
C227       C   -0.0000000000    0.0000000000   -0.3891907201          0.5402
C228       C    0.0275263029    0.0031870805   -0.3808382910           0.543
C229       C    0.0345731975    0.0052435639   -0.3528487957          0.5447
C230       C    0.0134651993    0.0041806450   -0.3327916294          0.5436
C231       C   -0.0137604657   -0.0006730591   -0.3411904713          0.5393
C232       C   -0.0204680651   -0.0025974866   -0.3688935106          0.5377
C233       C    0.0197960031    0.0090756005   -0.3009105450         -0.4522
N234       N    0.0625442649    0.0086597552   -0.3455810620         -0.4523
H235       H    0.0446018517    0.0048416216   -0.3969980793          0.5446
H236       H   -0.0430988574   -0.0060878774   -0.3741484669          0.5346
H237       H   -0.0313485565   -0.0024616333   -0.3257618763          0.5375
C238       C   -0.0066624711    0.0190543843   -0.2828127143         -0.4434
N239       N    0.0044088983    0.0312278480   -0.2554827143         -0.4326
N240       N    0.0191562112    0.0440165640   -0.2693551717          -0.421
N241       N    0.0299759674    0.0284999805   -0.2914114685         -0.4348
C242       C    0.0104643745    0.0076654846   -0.2345626003         -0.4539
H243       H   -0.0204887157    0.0346134093   -0.2946983528         -0.4293
H244       H   -0.0205895761    0.0004239571   -0.2781878677          0.5398
H245       H    0.0297198906   -0.0100674534   -0.2912783605          0.5305
H246       H    0.0680535669    0.0161758488   -0.3256117420         -0.4457
H247       H    0.0771019055    0.0164482247   -0.3601662180         -0.4452
O248       O   -0.0112648817    0.0091283927   -0.2121965139         -0.4527
C249       C    0.0309658928    0.0321083473   -0.1939412971         -0.4322
C250       C    0.0393632559    0.0121802343   -0.2189669930         -0.4499
C251       C   -0.0027804078   -0.0012471223   -0.1617971450          0.5376
H252       H    0.0471689533   -0.0087521492   -0.2114266715          0.5312
H253       H    0.0299840839    0.0543324805   -0.2019120679         -0.4122
H254       H    0.0464129151    0.0315375402   -0.1761348362         -0.4328
H255       H    0.0560844121    0.0215730940   -0.2327596833         -0.4414
H256       H   -0.0131323421    0.0408264075   -0.1804712317         -0.4245
C257       C    0.0001426137    0.0220291677   -0.1859705568         -0.4413
H258       H    0.0093703784   -0.0136499490   -0.2451006158           0.527
O259       O   -0.0134343319    0.0128262342   -0.1358834477         -0.4499
C260       C    0.0308360973   -0.0053443631   -0.1218557068          0.5337
C261       C    0.0248498017   -0.0175821604   -0.1519256672          0.5229
H262       H    0.0436838732   -0.0155660388   -0.1657921689          0.5248
H263       H    0.0430946136   -0.0203733526   -0.1083824413          0.5201
H264       H    0.0426086047    0.0151454305   -0.1236385324         -0.4479
H265       H    0.0198545286   -0.0406266930   -0.1501329502          0.5021
H266       H   -0.0105275363   -0.0207092316   -0.1061838377          0.5198
C267       C    0.0000000000    0.0000000000   -0.1108092799          0.5384
H268       H   -0.0190112234   -0.0171654960   -0.1684040166          0.5233
C185       C   -0.0000000000    0.0000000000    0.3891907201          0.5402
C186       C   -0.0046278043    0.0273210223    0.3808382910           0.543
C187       C   -0.0046213464    0.0346618537    0.3528487957          0.5447
C188       C    0.0002534647    0.0140969904    0.3327916294          0.5436
C189       C    0.0031970020   -0.0134008434    0.3411904713          0.5393
C190       C    0.0032225803   -0.0203789990    0.3688935106          0.5377
C191       C    0.0031854388    0.0215430091    0.3009105450         -0.4522
N192       N   -0.0091533795    0.0624739312    0.3455810620         -0.4523
H193       H   -0.0078082804    0.0441791493    0.3969980793          0.5446
H194       H    0.0061918363   -0.0430840449    0.3741484669          0.5346
H195       H    0.0063919311   -0.0307885506    0.3257618763          0.5375
C196       C    0.0201569203   -0.0010754743    0.2828127143         -0.4434
N197       N    0.0287537172    0.0129553318    0.2554827143         -0.4326
N198       N    0.0369145968    0.0306876339    0.2693551717          -0.421
N199       N    0.0189935651    0.0367430537    0.2914114685         -0.4348
C200       C    0.0044377485    0.0121888957    0.2345626003         -0.4539
H201       H    0.0389584121   -0.0100058835    0.2946983528         -0.4293
H202       H    0.0061577214   -0.0196517900    0.2781878677          0.5398
H203       H   -0.0179675310    0.0257253444    0.2912783605          0.5305
H204       H   -0.0034751331    0.0698632199    0.3256117420         -0.4457
H205       H   -0.0057407831    0.0786275482    0.3601662180         -0.4452
O206       O    0.0119113860   -0.0082670428    0.2121965139         -0.4527
C207       C    0.0221818500    0.0387013955    0.1939412971         -0.4322
C208       C    0.0007014189    0.0411986897    0.2189669930         -0.4499
C209       C   -0.0004209288   -0.0030180789    0.1617971450          0.5376
H210       H   -0.0215780657    0.0428473727    0.2114266715          0.5312
H211       H    0.0437957770    0.0439658236    0.2019120679         -0.4122
H212       H    0.0173194296    0.0533742681    0.1761348362         -0.4328
H213       H    0.0050502912    0.0598778275    0.2327596833         -0.4414
H214       H    0.0428695364   -0.0012069810    0.1804712317         -0.4245
C215       C    0.0211126709    0.0062896499    0.1859705568         -0.4413
H216       H   -0.0157238722    0.0051850690    0.2451006158           0.527
O217       O    0.0160679935   -0.0093173570    0.1358834477         -0.4499
C218       C   -0.0137441538    0.0281162826    0.1218557068          0.5337
C219       C   -0.0238229772    0.0189502182    0.1519256672          0.5229
H220       H   -0.0271474148    0.0375978751    0.1657921689          0.5248
H221       H   -0.0315988391    0.0356893904    0.1083824413          0.5201
H222       H    0.0026421925    0.0451430624    0.1236385324         -0.4479
H223       H   -0.0445552657    0.0077174338    0.1501329502          0.5021
H224       H   -0.0169447701   -0.0158926418    0.1061838377          0.5198
C225       C    0.0000000000   -0.0000000000    0.1108092799          0.5384
H226       H   -0.0111725793   -0.0230489553    0.1684040166          0.5233
loop_
_geom_bond_atom_site_label_1
_geom_bond_atom_site_label_2
_geom_bond_distance
_geom_bond_site_symmetry_2
_ccdc_geom_bond_type
Zn1          O5 1.942       .   S
Zn1          O6 1.922       .   S
Zn1         O10 1.922       .   S
Zn1         O17 1.922       .   S
Zn2          O5 1.942       .   S
Zn2          O7 1.922       .   S
Zn2          O9 1.922       .   S
Zn2         O13 1.922       .   S
Zn3          O5 1.942       .   S
Zn3          O8 1.922       .   S
Zn3         O11 1.922       .   S
Zn3         O14 1.922       .   S
Zn4          O5 1.942       .   S
Zn4         O12 1.922       .   S
Zn4         O15 1.922       .   S
Zn4         O16 1.922       .   S
O6          C18 1.304       .   A
O7          C19 1.304       .   A
O8          C20 1.304       .   A
O9          C18 1.304       .   A
O10         C20 1.304       .   A
O11         C19 1.304       .   A
O12         C21 1.304       .   A
O13         C22 1.304       .   A
O14         C21 1.304       .   A
O15         C22 1.304       .   A
O16         C23 1.304       .   A
O17         C23 1.304       .   A
C18        C393 1.540       .   S
C19        C225 1.540       .   S
C20        C351 1.540       .   S
C21        C395 1.540       .   S
C22        C269 1.540       .   S
C23        C267 1.540       .   S
Zn24        O28 1.942       .   S
Zn24        O29 1.922       .   S
Zn24        O33 1.922       .   S
Zn24        O40 1.922       .   S
Zn25        O28 1.942       .   S
Zn25        O30 1.922       .   S
Zn25        O32 1.922       .   S
Zn25        O36 1.922       .   S
Zn26        O28 1.942       .   S
Zn26        O31 1.922       .   S
Zn26        O34 1.922       .   S
Zn26        O37 1.922       .   S
Zn27        O28 1.942       .   S
Zn27        O35 1.922       .   S
Zn27        O38 1.922       .   S
Zn27        O39 1.922       .   S
O29         C41 1.304       .   A
O30         C42 1.304       .   A
O31         C43 1.304       .   A
O32         C41 1.304       .   A
O33         C43 1.304       .   A
O34         C42 1.304       .   A
O35         C44 1.304       .   A
O36         C45 1.304       .   A
O37         C44 1.304       .   A
O38         C45 1.304       .   A
O39         C46 1.304       .   A
O40         C46 1.304       .   A
C41        C185 1.540   1_655   S
C42        C477 1.540       .   S
C43        C521 1.540       .   S
C44        C227 1.540   1_656   S
C45        C603 1.540       .   S
C46        C479 1.540       .   S
Zn47        O51 1.942       .   S
Zn47        O52 1.922       .   S
Zn47        O56 1.922       .   S
Zn47        O63 1.922       .   S
Zn48        O51 1.942       .   S
Zn48        O53 1.922       .   S
Zn48        O55 1.922       .   S
Zn48        O59 1.922       .   S
Zn49        O51 1.942       .   S
Zn49        O54 1.922       .   S
Zn49        O57 1.922       .   S
Zn49        O60 1.922       .   S
Zn50        O51 1.942       .   S
Zn50        O58 1.922       .   S
Zn50        O61 1.922       .   S
Zn50        O62 1.922       .   S
O52         C64 1.304       .   A
O53         C65 1.304       .   A
O54         C66 1.304       .   A
O55         C64 1.304       .   A
O56         C66 1.304       .   A
O57         C65 1.304       .   A
O58         C67 1.304       .   A
O59         C68 1.304       .   A
O60         C67 1.304       .   A
O61         C68 1.304       .   A
O62         C69 1.304       .   A
O63         C69 1.304       .   A
C64        C647 1.540       .   S
C65        C771 1.540       .   S
C66        C353 1.540   1_655   S
C67        C645 1.540       .   S
C68        C435 1.540   1_665   S
C69        C729 1.540       .   S
Zn70        O74 1.942       .   S
Zn70        O75 1.922       .   S
Zn70        O79 1.922       .   S
Zn70        O86 1.922       .   S
Zn71        O74 1.942       .   S
Zn71        O76 1.922       .   S
Zn71        O78 1.922       .   S
Zn71        O82 1.922       .   S
Zn72        O74 1.942       .   S
Zn72        O77 1.922       .   S
Zn72        O80 1.922       .   S
Zn72        O83 1.922       .   S
Zn73        O74 1.942       .   S
Zn73        O81 1.922       .   S
Zn73        O84 1.922       .   S
Zn73        O85 1.922       .   S
O75         C87 1.304       .   A
O76         C88 1.304       .   A
O77         C89 1.304       .   A
O78         C87 1.304       .   A
O79         C89 1.304       .   A
O80         C88 1.304       .   A
O81         C90 1.304       .   A
O82         C91 1.304       .   A
O83         C90 1.304       .   A
O84         C91 1.304       .   A
O85         C92 1.304       .   A
O86         C92 1.304       .   A
C87        C561 1.540       .   S
C88        C605 1.540       .   S
C89        C815 1.540       .   S
C90        C563 1.540   1_565   S
C91        C813 1.540       .   S
C92        C687 1.540   1_556   S
Zn93        O97 1.942       .   S
Zn93        O98 1.922       .   S
Zn93       O102 1.922       .   S
Zn93       O109 1.922       .   S
Zn94        O97 1.942       .   S
Zn94        O99 1.922       .   S
Zn94       O101 1.922       .   S
Zn94       O105 1.922       .   S
Zn95        O97 1.942       .   S
Zn95       O100 1.922       .   S
Zn95       O103 1.922       .   S
Zn95       O106 1.922       .   S
Zn96        O97 1.942       .   S
Zn96       O104 1.922       .   S
Zn96       O107 1.922       .   S
Zn96       O108 1.922       .   S
O98        C110 1.304       .   A
O99        C111 1.304       .   A
O100       C112 1.304       .   A
O101       C110 1.304       .   A
O102       C112 1.304       .   A
O103       C111 1.304       .   A
O104       C113 1.304       .   A
O105       C114 1.304       .   A
O106       C113 1.304       .   A
O107       C114 1.304       .   A
O108       C115 1.304       .   A
O109       C115 1.304       .   A
C110       C309 1.540   1_565   S
C111       C857 1.540       .   S
C112       C983 1.540       .   S
C113       C311 1.540   1_665   S
C114       C981 1.540       .   S
C115       C899 1.540       .   S
Zn116      O120 1.942       .   S
Zn116      O121 1.922       .   S
Zn116      O125 1.922       .   S
Zn116      O132 1.922       .   S
Zn117      O120 1.942       .   S
Zn117      O122 1.922       .   S
Zn117      O124 1.922       .   S
Zn117      O128 1.922       .   S
Zn118      O120 1.942       .   S
Zn118      O123 1.922       .   S
Zn118      O126 1.922       .   S
Zn118      O129 1.922       .   S
Zn119      O120 1.942       .   S
Zn119      O127 1.922       .   S
Zn119      O130 1.922       .   S
Zn119      O131 1.922       .   S
O121       C133 1.304       .   A
O122       C134 1.304       .   A
O123       C135 1.304       .   A
O124       C133 1.304       .   A
O125       C135 1.304       .   A
O126       C134 1.304       .   A
O127       C136 1.304       .   A
O128       C137 1.304       .   A
O129       C136 1.304       .   A
O130       C137 1.304       .   A
O131       C138 1.304       .   A
O132       C138 1.304       .   A
C133      C1065 1.540       .   S
C134       C437 1.540   1_465   S
C135       C897 1.540       .   S
C136      C1067 1.540       .   S
C137       C939 1.540   1_556   S
C138       C519 1.540   1_565   S
Zn139      O143 1.942       .   S
Zn139      O144 1.922       .   S
Zn139      O148 1.922       .   S
Zn139      O155 1.922       .   S
Zn140      O143 1.942       .   S
Zn140      O145 1.922       .   S
Zn140      O147 1.922       .   S
Zn140      O151 1.922       .   S
Zn141      O143 1.942       .   S
Zn141      O146 1.922       .   S
Zn141      O149 1.922       .   S
Zn141      O152 1.922       .   S
Zn142      O143 1.942       .   S
Zn142      O150 1.922       .   S
Zn142      O153 1.922       .   S
Zn142      O154 1.922       .   S
O144       C156 1.304       .   A
O145       C157 1.304       .   A
O146       C158 1.304       .   A
O147       C156 1.304       .   A
O148       C158 1.304       .   A
O149       C157 1.304       .   A
O150       C159 1.304       .   A
O151       C160 1.304       .   A
O152       C159 1.304       .   A
O153       C160 1.304       .   A
O154       C161 1.304       .   A
O155       C161 1.304       .   A
C156       C689 1.540   1_455   S
C157       C941 1.540   1_545   S
C158      C1191 1.540       .   S
C159       C731 1.540       .   S
C160      C1109 1.540       .   S
C161      C1023 1.540       .   S
Zn162      O166 1.942       .   S
Zn162      O167 1.922       .   S
Zn162      O171 1.922       .   S
Zn162      O178 1.922       .   S
Zn163      O166 1.942       .   S
Zn163      O168 1.922       .   S
Zn163      O170 1.922       .   S
Zn163      O174 1.922       .   S
Zn164      O166 1.942       .   S
Zn164      O169 1.922       .   S
Zn164      O172 1.922       .   S
Zn164      O175 1.922       .   S
Zn165      O166 1.942       .   S
Zn165      O173 1.922       .   S
Zn165      O176 1.922       .   S
Zn165      O177 1.922       .   S
O167       C179 1.304       .   A
O168       C180 1.304       .   A
O169       C181 1.304       .   A
O170       C179 1.304       .   A
O171       C181 1.304       .   A
O172       C180 1.304       .   A
O173       C182 1.304       .   A
O174       C183 1.304       .   A
O175       C182 1.304       .   A
O176       C183 1.304       .   A
O177       C184 1.304       .   A
O178       C184 1.304       .   A
C179       C773 1.540   1_455   S
C180      C1151 1.540   1_556   S
C181      C1025 1.540   1_545   S
C182       C855 1.540       .   S
C183      C1107 1.540       .   S
C184      C1149 1.540       .   S
C1151     C1152 0.026       .   A
C1151     C1156 0.026       .   A
C1152     C1153 0.026       .   A
C1152     H1159 0.021       .   A
C1153     C1154 0.026       .   A
C1153     N1158 0.026       .   A
C1154     C1155 0.026       .   A
C1154     C1157 0.030       .   A
C1155     C1156 0.026       .   A
C1155     H1161 0.021       .   A
C1156     H1160 0.021       .   A
C1157     C1162 0.030       .   A
C1157     N1165 0.021       .   A
C1157     H1169 0.021       .   A
N1158     H1170 0.020       .   A
N1158     H1171 0.020       .   A
C1162     N1163 0.029       .   A
C1162     H1167 0.022       .   A
C1162     H1168 0.021       .   A
N1163     N1164 0.022       .   A
N1163     C1166 0.029       .   A
N1164     N1165 0.026       .   A
C1166     O1172 0.028       .   A
C1166     C1174 0.030       .   A
C1166     H1182 0.021       .   A
O1172     C1181 0.028       .   A
C1173     C1174 0.030       .   A
C1173     H1177 0.021       .   A
C1173     H1178 0.021       .   A
C1173     C1181 0.030       .   A
C1174     H1176 0.021       .   A
C1174     H1179 0.021       .   A
C1175     C1181 0.030       .   A
C1175     O1183 0.028       .   A
C1175     C1185 0.030       .   A
C1175     H1192 0.021       .   A
H1180     C1181 0.021       .   A
O1183     C1191 0.028       .   A
C1184     C1185 0.030       .   A
C1184     H1187 0.021       .   A
C1184     H1188 0.021       .   A
C1184     C1191 0.030       .   A
C1185     H1186 0.021       .   A
C1185     H1189 0.021       .   A
H1190     C1191 0.021       .   A
C1109     C1110 0.026       .   A
C1109     C1114 0.026       .   A
C1110     C1111 0.026       .   A
C1110     H1117 0.021       .   A
C1111     C1112 0.026       .   A
C1111     N1116 0.026       .   A
C1112     C1113 0.026       .   A
C1112     C1115 0.030       .   A
C1113     C1114 0.026       .   A
C1113     H1119 0.021       .   A
C1114     H1118 0.021       .   A
C1115     C1120 0.030       .   A
C1115     N1123 0.021       .   A
C1115     H1127 0.021       .   A
N1116     H1128 0.020       .   A
N1116     H1129 0.020       .   A
C1120     N1121 0.029       .   A
C1120     H1125 0.022       .   A
C1120     H1126 0.021       .   A
N1121     N1122 0.022       .   A
N1121     C1124 0.029       .   A
N1122     N1123 0.026       .   A
C1124     O1130 0.028       .   A
C1124     C1132 0.030       .   A
C1124     H1140 0.021       .   A
O1130     C1139 0.028       .   A
C1131     C1132 0.030       .   A
C1131     H1135 0.021       .   A
C1131     H1136 0.021       .   A
C1131     C1139 0.030       .   A
C1132     H1134 0.021       .   A
C1132     H1137 0.021       .   A
C1133     C1139 0.030       .   A
C1133     O1141 0.028       .   A
C1133     C1143 0.030       .   A
C1133     H1150 0.021       .   A
H1138     C1139 0.021       .   A
O1141     C1149 0.028       .   A
C1142     C1143 0.030       .   A
C1142     H1145 0.021       .   A
C1142     H1146 0.021       .   A
C1142     C1149 0.030       .   A
C1143     H1144 0.021       .   A
C1143     H1147 0.021       .   A
H1148     C1149 0.021       .   A
C1067     C1068 0.026       .   A
C1067     C1072 0.026       .   A
C1068     C1069 0.026       .   A
C1068     H1075 0.021       .   A
C1069     C1070 0.026       .   A
C1069     N1074 0.026       .   A
C1070     C1071 0.026       .   A
C1070     C1073 0.030       .   A
C1071     C1072 0.026       .   A
C1071     H1077 0.021       .   A
C1072     H1076 0.021       .   A
C1073     C1078 0.030       .   A
C1073     N1081 0.021       .   A
C1073     H1085 0.021       .   A
N1074     H1086 0.020       .   A
N1074     H1087 0.020       .   A
C1078     N1079 0.029       .   A
C1078     H1083 0.022       .   A
C1078     H1084 0.021       .   A
N1079     N1080 0.022       .   A
N1079     C1082 0.029       .   A
N1080     N1081 0.026       .   A
C1082     O1088 0.028       .   A
C1082     C1090 0.030       .   A
C1082     H1098 0.021       .   A
O1088     C1097 0.028       .   A
C1089     C1090 0.030       .   A
C1089     H1093 0.021       .   A
C1089     H1094 0.021       .   A
C1089     C1097 0.030       .   A
C1090     H1092 0.021       .   A
C1090     H1095 0.021       .   A
C1091     C1097 0.030       .   A
C1091     O1099 0.028       .   A
C1091     C1101 0.030       .   A
C1091     H1108 0.021       .   A
H1096     C1097 0.021       .   A
O1099     C1107 0.028       .   A
C1100     C1101 0.030       .   A
C1100     H1103 0.021       .   A
C1100     H1104 0.021       .   A
C1100     C1107 0.030       .   A
C1101     H1102 0.021       .   A
C1101     H1105 0.021       .   A
H1106     C1107 0.021       .   A
C1025     C1026 0.026       .   A
C1025     C1030 0.026       .   A
C1026     C1027 0.026       .   A
C1026     H1033 0.021       .   A
C1027     C1028 0.026       .   A
C1027     N1032 0.026       .   A
C1028     C1029 0.026       .   A
C1028     C1031 0.030       .   A
C1029     C1030 0.026       .   A
C1029     H1035 0.021       .   A
C1030     H1034 0.021       .   A
C1031     C1036 0.030       .   A
C1031     N1039 0.021       .   A
C1031     H1043 0.021       .   A
N1032     H1044 0.020       .   A
N1032     H1045 0.020       .   A
C1036     N1037 0.029       .   A
C1036     H1041 0.022       .   A
C1036     H1042 0.021       .   A
N1037     N1038 0.022       .   A
N1037     C1040 0.029       .   A
N1038     N1039 0.026       .   A
C1040     O1046 0.028       .   A
C1040     C1048 0.030       .   A
C1040     H1056 0.021       .   A
O1046     C1055 0.028       .   A
C1047     C1048 0.030       .   A
C1047     H1051 0.021       .   A
C1047     H1052 0.021       .   A
C1047     C1055 0.030       .   A
C1048     H1050 0.021       .   A
C1048     H1053 0.021       .   A
C1049     C1055 0.030       .   A
C1049     O1057 0.028       .   A
C1049     C1059 0.030       .   A
C1049     H1066 0.021       .   A
H1054     C1055 0.021       .   A
O1057     C1065 0.028       .   A
C1058     C1059 0.030       .   A
C1058     H1061 0.021       .   A
C1058     H1062 0.021       .   A
C1058     C1065 0.030       .   A
C1059     H1060 0.021       .   A
C1059     H1063 0.021       .   A
H1064     C1065 0.021       .   A
C983       C984 0.026       .   A
C983       C988 0.026       .   A
C984       C985 0.026       .   A
C984       H991 0.021       .   A
C985       C986 0.026       .   A
C985       N990 0.026       .   A
C986       C987 0.026       .   A
C986       C989 0.030       .   A
C987       C988 0.026       .   A
C987       H993 0.021       .   A
C988       H992 0.021       .   A
C989       C994 0.030       .   A
C989       N997 0.021       .   A
C989      H1001 0.021       .   A
N990      H1002 0.020       .   A
N990      H1003 0.020       .   A
C994       N995 0.029       .   A
C994       H999 0.022       .   A
C994      H1000 0.021       .   A
N995       N996 0.022       .   A
N995       C998 0.029       .   A
N996       N997 0.026       .   A
C998      O1004 0.028       .   A
C998      C1006 0.030       .   A
C998      H1014 0.021       .   A
O1004     C1013 0.028       .   A
C1005     C1006 0.030       .   A
C1005     H1009 0.021       .   A
C1005     H1010 0.021       .   A
C1005     C1013 0.030       .   A
C1006     H1008 0.021       .   A
C1006     H1011 0.021       .   A
C1007     C1013 0.030       .   A
C1007     O1015 0.028       .   A
C1007     C1017 0.030       .   A
C1007     H1024 0.021       .   A
H1012     C1013 0.021       .   A
O1015     C1023 0.028       .   A
C1016     C1017 0.030       .   A
C1016     H1019 0.021       .   A
C1016     H1020 0.021       .   A
C1016     C1023 0.030       .   A
C1017     H1018 0.021       .   A
C1017     H1021 0.021       .   A
H1022     C1023 0.021       .   A
C941       C942 0.026       .   A
C941       C946 0.026       .   A
C942       C943 0.026       .   A
C942       H949 0.021       .   A
C943       C944 0.026       .   A
C943       N948 0.026       .   A
C944       C945 0.026       .   A
C944       C947 0.030       .   A
C945       C946 0.026       .   A
C945       H951 0.021       .   A
C946       H950 0.021       .   A
C947       C952 0.030       .   A
C947       N955 0.021       .   A
C947       H959 0.021       .   A
N948       H960 0.020       .   A
N948       H961 0.020       .   A
C952       N953 0.029       .   A
C952       H957 0.022       .   A
C952       H958 0.021       .   A
N953       N954 0.022       .   A
N953       C956 0.029       .   A
N954       N955 0.026       .   A
C956       O962 0.028       .   A
C956       C964 0.030       .   A
C956       H972 0.021       .   A
O962       C971 0.028       .   A
C963       C964 0.030       .   A
C963       H967 0.021       .   A
C963       H968 0.021       .   A
C963       C971 0.030       .   A
C964       H966 0.021       .   A
C964       H969 0.021       .   A
C965       C971 0.030       .   A
C965       O973 0.028       .   A
C965       C975 0.030       .   A
C965       H982 0.021       .   A
H970       C971 0.021       .   A
O973       C981 0.028       .   A
C974       C975 0.030       .   A
C974       H977 0.021       .   A
C974       H978 0.021       .   A
C974       C981 0.030       .   A
C975       H976 0.021       .   A
C975       H979 0.021       .   A
H980       C981 0.021       .   A
C899       C900 0.026       .   A
C899       C904 0.026       .   A
C900       C901 0.026       .   A
C900       H907 0.021       .   A
C901       C902 0.026       .   A
C901       N906 0.026       .   A
C902       C903 0.026       .   A
C902       C905 0.030       .   A
C903       C904 0.026       .   A
C903       H909 0.021       .   A
C904       H908 0.021       .   A
C905       C910 0.030       .   A
C905       N913 0.021       .   A
C905       H917 0.021       .   A
N906       H918 0.020       .   A
N906       H919 0.020       .   A
C910       N911 0.029       .   A
C910       H915 0.022       .   A
C910       H916 0.021       .   A
N911       N912 0.022       .   A
N911       C914 0.029       .   A
N912       N913 0.026       .   A
C914       O920 0.028       .   A
C914       C922 0.030       .   A
C914       H930 0.021       .   A
O920       C929 0.028       .   A
C921       C922 0.030       .   A
C921       H925 0.021       .   A
C921       H926 0.021       .   A
C921       C929 0.030       .   A
C922       H924 0.021       .   A
C922       H927 0.021       .   A
C923       C929 0.030       .   A
C923       O931 0.028       .   A
C923       C933 0.030       .   A
C923       H940 0.021       .   A
H928       C929 0.021       .   A
O931       C939 0.028       .   A
C932       C933 0.030       .   A
C932       H935 0.021       .   A
C932       H936 0.021       .   A
C932       C939 0.030       .   A
C933       H934 0.021       .   A
C933       H937 0.021       .   A
H938       C939 0.021       .   A
C857       C858 0.026       .   A
C857       C862 0.026       .   A
C858       C859 0.026       .   A
C858       H865 0.021       .   A
C859       C860 0.026       .   A
C859       N864 0.026       .   A
C860       C861 0.026       .   A
C860       C863 0.030       .   A
C861       C862 0.026       .   A
C861       H867 0.021       .   A
C862       H866 0.021       .   A
C863       C868 0.030       .   A
C863       N871 0.021       .   A
C863       H875 0.021       .   A
N864       H876 0.020       .   A
N864       H877 0.020       .   A
C868       N869 0.029       .   A
C868       H873 0.022       .   A
C868       H874 0.021       .   A
N869       N870 0.022       .   A
N869       C872 0.029       .   A
N870       N871 0.026       .   A
C872       O878 0.028       .   A
C872       C880 0.030       .   A
C872       H888 0.021       .   A
O878       C887 0.028       .   A
C879       C880 0.030       .   A
C879       H883 0.021       .   A
C879       H884 0.021       .   A
C879       C887 0.030       .   A
C880       H882 0.021       .   A
C880       H885 0.021       .   A
C881       C887 0.030       .   A
C881       O889 0.028       .   A
C881       C891 0.030       .   A
C881       H898 0.021       .   A
H886       C887 0.021       .   A
O889       C897 0.028       .   A
C890       C891 0.030       .   A
C890       H893 0.021       .   A
C890       H894 0.021       .   A
C890       C897 0.030       .   A
C891       H892 0.021       .   A
C891       H895 0.021       .   A
H896       C897 0.021       .   A
C815       C816 0.026       .   A
C815       C820 0.026       .   A
C816       C817 0.026       .   A
C816       H823 0.021       .   A
C817       C818 0.026       .   A
C817       N822 0.026       .   A
C818       C819 0.026       .   A
C818       C821 0.030       .   A
C819       C820 0.026       .   A
C819       H825 0.021       .   A
C820       H824 0.021       .   A
C821       C826 0.030       .   A
C821       N829 0.021       .   A
C821       H833 0.021       .   A
N822       H834 0.020       .   A
N822       H835 0.020       .   A
C826       N827 0.029       .   A
C826       H831 0.022       .   A
C826       H832 0.021       .   A
N827       N828 0.022       .   A
N827       C830 0.029       .   A
N828       N829 0.026       .   A
C830       O836 0.028       .   A
C830       C838 0.030       .   A
C830       H846 0.021       .   A
O836       C845 0.028       .   A
C837       C838 0.030       .   A
C837       H841 0.021       .   A
C837       H842 0.021       .   A
C837       C845 0.030       .   A
C838       H840 0.021       .   A
C838       H843 0.021       .   A
C839       C845 0.030       .   A
C839       O847 0.028       .   A
C839       C849 0.030       .   A
C839       H856 0.021       .   A
H844       C845 0.021       .   A
O847       C855 0.028       .   A
C848       C849 0.030       .   A
C848       H851 0.021       .   A
C848       H852 0.021       .   A
C848       C855 0.030       .   A
C849       H850 0.021       .   A
C849       H853 0.021       .   A
H854       C855 0.021       .   A
C773       C774 0.026       .   A
C773       C778 0.026       .   A
C774       C775 0.026       .   A
C774       H781 0.021       .   A
C775       C776 0.026       .   A
C775       N780 0.026       .   A
C776       C777 0.026       .   A
C776       C779 0.030       .   A
C777       C778 0.026       .   A
C777       H783 0.021       .   A
C778       H782 0.021       .   A
C779       C784 0.030       .   A
C779       N787 0.021       .   A
C779       H791 0.021       .   A
N780       H792 0.020       .   A
N780       H793 0.020       .   A
C784       N785 0.029       .   A
C784       H789 0.022       .   A
C784       H790 0.021       .   A
N785       N786 0.022       .   A
N785       C788 0.029       .   A
N786       N787 0.026       .   A
C788       O794 0.028       .   A
C788       C796 0.030       .   A
C788       H804 0.021       .   A
O794       C803 0.028       .   A
C795       C796 0.030       .   A
C795       H799 0.021       .   A
C795       H800 0.021       .   A
C795       C803 0.030       .   A
C796       H798 0.021       .   A
C796       H801 0.021       .   A
C797       C803 0.030       .   A
C797       O805 0.028       .   A
C797       C807 0.030       .   A
C797       H814 0.021       .   A
H802       C803 0.021       .   A
O805       C813 0.028       .   A
C806       C807 0.030       .   A
C806       H809 0.021       .   A
C806       H810 0.021       .   A
C806       C813 0.030       .   A
C807       H808 0.021       .   A
C807       H811 0.021       .   A
H812       C813 0.021       .   A
C731       C732 0.026       .   A
C731       C736 0.026       .   A
C732       C733 0.026       .   A
C732       H739 0.021       .   A
C733       C734 0.026       .   A
C733       N738 0.026       .   A
C734       C735 0.026       .   A
C734       C737 0.030       .   A
C735       C736 0.026       .   A
C735       H741 0.021       .   A
C736       H740 0.021       .   A
C737       C742 0.030       .   A
C737       N745 0.021       .   A
C737       H749 0.021       .   A
N738       H750 0.020       .   A
N738       H751 0.020       .   A
C742       N743 0.029       .   A
C742       H747 0.022       .   A
C742       H748 0.021       .   A
N743       N744 0.022       .   A
N743       C746 0.029       .   A
N744       N745 0.026       .   A
C746       O752 0.028       .   A
C746       C754 0.030       .   A
C746       H762 0.021       .   A
O752       C761 0.028       .   A
C753       C754 0.030       .   A
C753       H757 0.021       .   A
C753       H758 0.021       .   A
C753       C761 0.030       .   A
C754       H756 0.021       .   A
C754       H759 0.021       .   A
C755       C761 0.030       .   A
C755       O763 0.028       .   A
C755       C765 0.030       .   A
C755       H772 0.021       .   A
H760       C761 0.021       .   A
O763       C771 0.028       .   A
C764       C765 0.030       .   A
C764       H767 0.021       .   A
C764       H768 0.021       .   A
C764       C771 0.030       .   A
C765       H766 0.021       .   A
C765       H769 0.021       .   A
H770       C771 0.021       .   A
C689       C690 0.026       .   A
C689       C694 0.026       .   A
C690       C691 0.026       .   A
C690       H697 0.021       .   A
C691       C692 0.026       .   A
C691       N696 0.026       .   A
C692       C693 0.026       .   A
C692       C695 0.030       .   A
C693       C694 0.026       .   A
C693       H699 0.021       .   A
C694       H698 0.021       .   A
C695       C700 0.030       .   A
C695       N703 0.021       .   A
C695       H707 0.021       .   A
N696       H708 0.020       .   A
N696       H709 0.020       .   A
C700       N701 0.029       .   A
C700       H705 0.022       .   A
C700       H706 0.021       .   A
N701       N702 0.022       .   A
N701       C704 0.029       .   A
N702       N703 0.026       .   A
C704       O710 0.028       .   A
C704       C712 0.030       .   A
C704       H720 0.021       .   A
O710       C719 0.028       .   A
C711       C712 0.030       .   A
C711       H715 0.021       .   A
C711       H716 0.021       .   A
C711       C719 0.030       .   A
C712       H714 0.021       .   A
C712       H717 0.021       .   A
C713       C719 0.030       .   A
C713       O721 0.028       .   A
C713       C723 0.030       .   A
C713       H730 0.021       .   A
H718       C719 0.021       .   A
O721       C729 0.028       .   A
C722       C723 0.030       .   A
C722       H725 0.021       .   A
C722       H726 0.021       .   A
C722       C729 0.030       .   A
C723       H724 0.021       .   A
C723       H727 0.021       .   A
H728       C729 0.021       .   A
C647       C648 0.026       .   A
C647       C652 0.026       .   A
C648       C649 0.026       .   A
C648       H655 0.021       .   A
C649       C650 0.026       .   A
C649       N654 0.026       .   A
C650       C651 0.026       .   A
C650       C653 0.030       .   A
C651       C652 0.026       .   A
C651       H657 0.021       .   A
C652       H656 0.021       .   A
C653       C658 0.030       .   A
C653       N661 0.021       .   A
C653       H665 0.021       .   A
N654       H666 0.020       .   A
N654       H667 0.020       .   A
C658       N659 0.029       .   A
C658       H663 0.022       .   A
C658       H664 0.021       .   A
N659       N660 0.022       .   A
N659       C662 0.029       .   A
N660       N661 0.026       .   A
C662       O668 0.028       .   A
C662       C670 0.030       .   A
C662       H678 0.021       .   A
O668       C677 0.028       .   A
C669       C670 0.030       .   A
C669       H673 0.021       .   A
C669       H674 0.021       .   A
C669       C677 0.030       .   A
C670       H672 0.021       .   A
C670       H675 0.021       .   A
C671       C677 0.030       .   A
C671       O679 0.028       .   A
C671       C681 0.030       .   A
C671       H688 0.021       .   A
H676       C677 0.021       .   A
O679       C687 0.028       .   A
C680       C681 0.030       .   A
C680       H683 0.021       .   A
C680       H684 0.021       .   A
C680       C687 0.030       .   A
C681       H682 0.021       .   A
C681       H685 0.021       .   A
H686       C687 0.021       .   A
C605       C606 0.026       .   A
C605       C610 0.026       .   A
C606       C607 0.026       .   A
C606       H613 0.021       .   A
C607       C608 0.026       .   A
C607       N612 0.026       .   A
C608       C609 0.026       .   A
C608       C611 0.030       .   A
C609       C610 0.026       .   A
C609       H615 0.021       .   A
C610       H614 0.021       .   A
C611       C616 0.030       .   A
C611       N619 0.021       .   A
C611       H623 0.021       .   A
N612       H624 0.020       .   A
N612       H625 0.020       .   A
C616       N617 0.029       .   A
C616       H621 0.022       .   A
C616       H622 0.021       .   A
N617       N618 0.022       .   A
N617       C620 0.029       .   A
N618       N619 0.026       .   A
C620       O626 0.028       .   A
C620       C628 0.030       .   A
C620       H636 0.021       .   A
O626       C635 0.028       .   A
C627       C628 0.030       .   A
C627       H631 0.021       .   A
C627       H632 0.021       .   A
C627       C635 0.030       .   A
C628       H630 0.021       .   A
C628       H633 0.021       .   A
C629       C635 0.030       .   A
C629       O637 0.028       .   A
C629       C639 0.030       .   A
C629       H646 0.021       .   A
H634       C635 0.021       .   A
O637       C645 0.028       .   A
C638       C639 0.030       .   A
C638       H641 0.021       .   A
C638       H642 0.021       .   A
C638       C645 0.030       .   A
C639       H640 0.021       .   A
C639       H643 0.021       .   A
H644       C645 0.021       .   A
C563       C564 0.026       .   A
C563       C568 0.026       .   A
C564       C565 0.026       .   A
C564       H571 0.021       .   A
C565       C566 0.026       .   A
C565       N570 0.026       .   A
C566       C567 0.026       .   A
C566       C569 0.030       .   A
C567       C568 0.026       .   A
C567       H573 0.021       .   A
C568       H572 0.021       .   A
C569       C574 0.030       .   A
C569       N577 0.021       .   A
C569       H581 0.021       .   A
N570       H582 0.020       .   A
N570       H583 0.020       .   A
C574       N575 0.029       .   A
C574       H579 0.022       .   A
C574       H580 0.021       .   A
N575       N576 0.022       .   A
N575       C578 0.029       .   A
N576       N577 0.026       .   A
C578       O584 0.028       .   A
C578       C586 0.030       .   A
C578       H594 0.021       .   A
O584       C593 0.028       .   A
C585       C586 0.030       .   A
C585       H589 0.021       .   A
C585       H590 0.021       .   A
C585       C593 0.030       .   A
C586       H588 0.021       .   A
C586       H591 0.021       .   A
C587       C593 0.030       .   A
C587       O595 0.028       .   A
C587       C597 0.030       .   A
C587       H604 0.021       .   A
H592       C593 0.021       .   A
O595       C603 0.028       .   A
C596       C597 0.030       .   A
C596       H599 0.021       .   A
C596       H600 0.021       .   A
C596       C603 0.030       .   A
C597       H598 0.021       .   A
C597       H601 0.021       .   A
H602       C603 0.021       .   A
C521       C522 0.026       .   A
C521       C526 0.026       .   A
C522       C523 0.026       .   A
C522       H529 0.021       .   A
C523       C524 0.026       .   A
C523       N528 0.026       .   A
C524       C525 0.026       .   A
C524       C527 0.030       .   A
C525       C526 0.026       .   A
C525       H531 0.021       .   A
C526       H530 0.021       .   A
C527       C532 0.030       .   A
C527       N535 0.021       .   A
C527       H539 0.021       .   A
N528       H540 0.020       .   A
N528       H541 0.020       .   A
C532       N533 0.029       .   A
C532       H537 0.022       .   A
C532       H538 0.021       .   A
N533       N534 0.022       .   A
N533       C536 0.029       .   A
N534       N535 0.026       .   A
C536       O542 0.028       .   A
C536       C544 0.030       .   A
C536       H552 0.021       .   A
O542       C551 0.028       .   A
C543       C544 0.030       .   A
C543       H547 0.021       .   A
C543       H548 0.021       .   A
C543       C551 0.030       .   A
C544       H546 0.021       .   A
C544       H549 0.021       .   A
C545       C551 0.030       .   A
C545       O553 0.028       .   A
C545       C555 0.030       .   A
C545       H562 0.021       .   A
H550       C551 0.021       .   A
O553       C561 0.028       .   A
C554       C555 0.030       .   A
C554       H557 0.021       .   A
C554       H558 0.021       .   A
C554       C561 0.030       .   A
C555       H556 0.021       .   A
C555       H559 0.021       .   A
H560       C561 0.021       .   A
C479       C480 0.026       .   A
C479       C484 0.026       .   A
C480       C481 0.026       .   A
C480       H487 0.021       .   A
C481       C482 0.026       .   A
C481       N486 0.026       .   A
C482       C483 0.026       .   A
C482       C485 0.030       .   A
C483       C484 0.026       .   A
C483       H489 0.021       .   A
C484       H488 0.021       .   A
C485       C490 0.030       .   A
C485       N493 0.021       .   A
C485       H497 0.021       .   A
N486       H498 0.020       .   A
N486       H499 0.020       .   A
C490       N491 0.029       .   A
C490       H495 0.022       .   A
C490       H496 0.021       .   A
N491       N492 0.022       .   A
N491       C494 0.029       .   A
N492       N493 0.026       .   A
C494       O500 0.028       .   A
C494       C502 0.030       .   A
C494       H510 0.021       .   A
O500       C509 0.028       .   A
C501       C502 0.030       .   A
C501       H505 0.021       .   A
C501       H506 0.021       .   A
C501       C509 0.030       .   A
C502       H504 0.021       .   A
C502       H507 0.021       .   A
C503       C509 0.030       .   A
C503       O511 0.028       .   A
C503       C513 0.030       .   A
C503       H520 0.021       .   A
H508       C509 0.021       .   A
O511       C519 0.028       .   A
C512       C513 0.030       .   A
C512       H515 0.021       .   A
C512       H516 0.021       .   A
C512       C519 0.030       .   A
C513       H514 0.021       .   A
C513       H517 0.021       .   A
H518       C519 0.021       .   A
C437       C438 0.026       .   A
C437       C442 0.026       .   A
C438       C439 0.026       .   A
C438       H445 0.021       .   A
C439       C440 0.026       .   A
C439       N444 0.026       .   A
C440       C441 0.026       .   A
C440       C443 0.030       .   A
C441       C442 0.026       .   A
C441       H447 0.021       .   A
C442       H446 0.021       .   A
C443       C448 0.030       .   A
C443       N451 0.021       .   A
C443       H455 0.021       .   A
N444       H456 0.020       .   A
N444       H457 0.020       .   A
C448       N449 0.029       .   A
C448       H453 0.022       .   A
C448       H454 0.021       .   A
N449       N450 0.022       .   A
N449       C452 0.029       .   A
N450       N451 0.026       .   A
C452       O458 0.028       .   A
C452       C460 0.030       .   A
C452       H468 0.021       .   A
O458       C467 0.028       .   A
C459       C460 0.030       .   A
C459       H463 0.021       .   A
C459       H464 0.021       .   A
C459       C467 0.030       .   A
C460       H462 0.021       .   A
C460       H465 0.021       .   A
C461       C467 0.030       .   A
C461       O469 0.028       .   A
C461       C471 0.030       .   A
C461       H478 0.021       .   A
H466       C467 0.021       .   A
O469       C477 0.028       .   A
C470       C471 0.030       .   A
C470       H473 0.021       .   A
C470       H474 0.021       .   A
C470       C477 0.030       .   A
C471       H472 0.021       .   A
C471       H475 0.021       .   A
H476       C477 0.021       .   A
C395       C396 0.026       .   A
C395       C400 0.026       .   A
C396       C397 0.026       .   A
C396       H403 0.021       .   A
C397       C398 0.026       .   A
C397       N402 0.026       .   A
C398       C399 0.026       .   A
C398       C401 0.030       .   A
C399       C400 0.026       .   A
C399       H405 0.021       .   A
C400       H404 0.021       .   A
C401       C406 0.030       .   A
C401       N409 0.021       .   A
C401       H413 0.021       .   A
N402       H414 0.020       .   A
N402       H415 0.020       .   A
C406       N407 0.029       .   A
C406       H411 0.022       .   A
C406       H412 0.021       .   A
N407       N408 0.022       .   A
N407       C410 0.029       .   A
N408       N409 0.026       .   A
C410       O416 0.028       .   A
C410       C418 0.030       .   A
C410       H426 0.021       .   A
O416       C425 0.028       .   A
C417       C418 0.030       .   A
C417       H421 0.021       .   A
C417       H422 0.021       .   A
C417       C425 0.030       .   A
C418       H420 0.021       .   A
C418       H423 0.021       .   A
C419       C425 0.030       .   A
C419       O427 0.028       .   A
C419       C429 0.030       .   A
C419       H436 0.021       .   A
H424       C425 0.021       .   A
O427       C435 0.028       .   A
C428       C429 0.030       .   A
C428       H431 0.021       .   A
C428       H432 0.021       .   A
C428       C435 0.030       .   A
C429       H430 0.021       .   A
C429       H433 0.021       .   A
H434       C435 0.021       .   A
C353       C354 0.026       .   A
C353       C358 0.026       .   A
C354       C355 0.026       .   A
C354       H361 0.021       .   A
C355       C356 0.026       .   A
C355       N360 0.026       .   A
C356       C357 0.026       .   A
C356       C359 0.030       .   A
C357       C358 0.026       .   A
C357       H363 0.021       .   A
C358       H362 0.021       .   A
C359       C364 0.030       .   A
C359       N367 0.021       .   A
C359       H371 0.021       .   A
N360       H372 0.020       .   A
N360       H373 0.020       .   A
C364       N365 0.029       .   A
C364       H369 0.022       .   A
C364       H370 0.021       .   A
N365       N366 0.022       .   A
N365       C368 0.029       .   A
N366       N367 0.026       .   A
C368       O374 0.028       .   A
C368       C376 0.030       .   A
C368       H384 0.021       .   A
O374       C383 0.028       .   A
C375       C376 0.030       .   A
C375       H379 0.021       .   A
C375       H380 0.021       .   A
C375       C383 0.030       .   A
C376       H378 0.021       .   A
C376       H381 0.021       .   A
C377       C383 0.030       .   A
C377       O385 0.028       .   A
C377       C387 0.030       .   A
C377       H394 0.021       .   A
H382       C383 0.021       .   A
O385       C393 0.028       .   A
C386       C387 0.030       .   A
C386       H389 0.021       .   A
C386       H390 0.021       .   A
C386       C393 0.030       .   A
C387       H388 0.021       .   A
C387       H391 0.021       .   A
H392       C393 0.021       .   A
C311       C312 0.026       .   A
C311       C316 0.026       .   A
C312       C313 0.026       .   A
C312       H319 0.021       .   A
C313       C314 0.026       .   A
C313       N318 0.026       .   A
C314       C315 0.026       .   A
C314       C317 0.030       .   A
C315       C316 0.026       .   A
C315       H321 0.021       .   A
C316       H320 0.021       .   A
C317       C322 0.030       .   A
C317       N325 0.021       .   A
C317       H329 0.021       .   A
N318       H330 0.020       .   A
N318       H331 0.020       .   A
C322       N323 0.029       .   A
C322       H327 0.022       .   A
C322       H328 0.021       .   A
N323       N324 0.022       .   A
N323       C326 0.029       .   A
N324       N325 0.026       .   A
C326       O332 0.028       .   A
C326       C334 0.030       .   A
C326       H342 0.021       .   A
O332       C341 0.028       .   A
C333       C334 0.030       .   A
C333       H337 0.021       .   A
C333       H338 0.021       .   A
C333       C341 0.030       .   A
C334       H336 0.021       .   A
C334       H339 0.021       .   A
C335       C341 0.030       .   A
C335       O343 0.028       .   A
C335       C345 0.030       .   A
C335       H352 0.021       .   A
H340       C341 0.021       .   A
O343       C351 0.028       .   A
C344       C345 0.030       .   A
C344       H347 0.021       .   A
C344       H348 0.021       .   A
C344       C351 0.030       .   A
C345       H346 0.021       .   A
C345       H349 0.021       .   A
H350       C351 0.021       .   A
C269       C270 0.026       .   A
C269       C274 0.026       .   A
C270       C271 0.026       .   A
C270       H277 0.021       .   A
C271       C272 0.026       .   A
C271       N276 0.026       .   A
C272       C273 0.026       .   A
C272       C275 0.030       .   A
C273       C274 0.026       .   A
C273       H279 0.021       .   A
C274       H278 0.021       .   A
C275       C280 0.030       .   A
C275       N283 0.021       .   A
C275       H287 0.021       .   A
N276       H288 0.020       .   A
N276       H289 0.020       .   A
C280       N281 0.029       .   A
C280       H285 0.022       .   A
C280       H286 0.021       .   A
N281       N282 0.022       .   A
N281       C284 0.029       .   A
N282       N283 0.026       .   A
C284       O290 0.028       .   A
C284       C292 0.030       .   A
C284       H300 0.021       .   A
O290       C299 0.028       .   A
C291       C292 0.030       .   A
C291       H295 0.021       .   A
C291       H296 0.021       .   A
C291       C299 0.030       .   A
C292       H294 0.021       .   A
C292       H297 0.021       .   A
C293       C299 0.030       .   A
C293       O301 0.028       .   A
C293       C303 0.030       .   A
C293       H310 0.021       .   A
H298       C299 0.021       .   A
O301       C309 0.028       .   A
C302       C303 0.030       .   A
C302       H305 0.021       .   A
C302       H306 0.021       .   A
C302       C309 0.030       .   A
C303       H304 0.021       .   A
C303       H307 0.021       .   A
H308       C309 0.021       .   A
C227       C228 0.026       .   A
C227       C232 0.026       .   A
C228       C229 0.026       .   A
C228       H235 0.021       .   A
C229       C230 0.026       .   A
C229       N234 0.026       .   A
C230       C231 0.026       .   A
C230       C233 0.030       .   A
C231       C232 0.026       .   A
C231       H237 0.021       .   A
C232       H236 0.021       .   A
C233       C238 0.030       .   A
C233       N241 0.021       .   A
C233       H245 0.021       .   A
N234       H246 0.020       .   A
N234       H247 0.020       .   A
C238       N239 0.029       .   A
C238       H243 0.022       .   A
C238       H244 0.021       .   A
N239       N240 0.022       .   A
N239       C242 0.029       .   A
N240       N241 0.026       .   A
C242       O248 0.028       .   A
C242       C250 0.030       .   A
C242       H258 0.021       .   A
O248       C257 0.028       .   A
C249       C250 0.030       .   A
C249       H253 0.021       .   A
C249       H254 0.021       .   A
C249       C257 0.030       .   A
C250       H252 0.021       .   A
C250       H255 0.021       .   A
C251       C257 0.030       .   A
C251       O259 0.028       .   A
C251       C261 0.030       .   A
C251       H268 0.021       .   A
H256       C257 0.021       .   A
O259       C267 0.028       .   A
C260       C261 0.030       .   A
C260       H263 0.021       .   A
C260       H264 0.021       .   A
C260       C267 0.030       .   A
C261       H262 0.021       .   A
C261       H265 0.021       .   A
H266       C267 0.021       .   A
C185       C186 0.026       .   A
C185       C190 0.026       .   A
C186       C187 0.026       .   A
C186       H193 0.021       .   A
C187       C188 0.026       .   A
C187       N192 0.026       .   A
C188       C189 0.026       .   A
C188       C191 0.030       .   A
C189       C190 0.026       .   A
C189       H195 0.021       .   A
C190       H194 0.021       .   A
C191       C196 0.030       .   A
C191       N199 0.021       .   A
C191       H203 0.021       .   A
N192       H204 0.020       .   A
N192       H205 0.020       .   A
C196       N197 0.029       .   A
C196       H201 0.022       .   A
C196       H202 0.021       .   A
N197       N198 0.022       .   A
N197       C200 0.029       .   A
N198       N199 0.026       .   A
C200       O206 0.028       .   A
C200       C208 0.030       .   A
C200       H216 0.021       .   A
O206       C215 0.028       .   A
C207       C208 0.030       .   A
C207       H211 0.021       .   A
C207       H212 0.021       .   A
C207       C215 0.030       .   A
C208       H210 0.021       .   A
C208       H213 0.021       .   A
C209       C215 0.030       .   A
C209       O217 0.028       .   A
C209       C219 0.030       .   A
C209       H226 0.021       .   A
H214       C215 0.021       .   A
O217       C225 0.028       .   A
C218       C219 0.030       .   A
C218       H221 0.021       .   A
C218       H222 0.021       .   A
C218       C225 0.030       .   A
C219       H220 0.021       .   A
C219       H223 0.021       .   A
H224       C225 0.021       .   A
