data_pcu_v1-6c_Zn_1_Ch_1-40_fer_tobacco
_audit_creation_date              2021-04-07
_audit_creation_method            'tobacco_3.0'
_symmetry_space_group_name_H-M    'P1'
_symmetry_Int_Tables_number       1
_symmetry_cell_setting            triclinic
loop_
_symmetry_equiv_pos_as_xyz
  x,y,z
_cell_length_a                    37.831739059699444
_cell_length_b                    37.831739059699444
_cell_length_c                    37.831739059699444
_cell_angle_alpha                 90.0
_cell_angle_beta                  90.0
_cell_angle_gamma                 90.0
loop_
_atom_site_label
_atom_site_type_symbol
_atom_site_fract_x
_atom_site_fract_y
_atom_site_fract_z
_atom_site_charge
Zn1       Zn   -0.0296364912   -0.0296364912    0.0296364912          1.4972
Zn2       Zn    0.0296364912    0.0296364912    0.0296364912          1.4936
Zn3       Zn    0.0296364912   -0.0296364912   -0.0296364912          1.4911
Zn4       Zn   -0.0296364912    0.0296364912   -0.0296364912          1.4948
O5         O    0.0000000000    0.0000000000    0.0000000000          -2.225
O6         O   -0.0217806535   -0.0217806535    0.0792086241         -1.1313
O7         O    0.0792086241    0.0217806535    0.0217806535         -1.1295
O8         O    0.0217806535   -0.0792086241   -0.0217806535         -1.1246
O9         O    0.0217806535    0.0217806535    0.0792086241         -1.1314
O10        O   -0.0217806535   -0.0792086241    0.0217806535         -1.1274
O11        O    0.0792086241   -0.0217806535   -0.0217806535         -1.1333
O12        O   -0.0217806535    0.0217806535   -0.0792086241         -1.1272
O13        O    0.0217806535    0.0792086241    0.0217806535         -1.1347
O14        O    0.0217806535   -0.0217806535   -0.0792086241         -1.1286
O15        O   -0.0217806535    0.0792086241   -0.0217806535         -1.1333
O16        O   -0.0792086241    0.0217806535   -0.0217806535         -1.1324
O17        O   -0.0792086241   -0.0217806535    0.0217806535         -1.1303
C18        C   -0.0000000000   -0.0000000000    0.0947035502          0.3876
C19        C    0.0947035502   -0.0000000000   -0.0000000000          0.3925
C20        C   -0.0000000000   -0.0947035502    0.0000000000          0.3821
C21        C    0.0000000000    0.0000000000   -0.0947035502          0.3859
C22        C    0.0000000000    0.0947035502   -0.0000000000          0.3972
C23        C   -0.0947035502    0.0000000000    0.0000000000          0.3877
Zn24      Zn    0.9703635088    0.0296364912    0.4703635088          1.4972
Zn25      Zn    1.0296364912   -0.0296364912    0.4703635088          1.4936
Zn26      Zn    1.0296364912    0.0296364912    0.5296364912          1.4911
Zn27      Zn    0.9703635088   -0.0296364912    0.5296364912          1.4948
O28        O    1.0000000000    0.0000000000    0.5000000000          -2.225
O29        O    0.9782193465    0.0217806535    0.4207913759         -1.1313
O30        O    1.0792086241   -0.0217806535    0.4782193465         -1.1295
O31        O    1.0217806535    0.0792086241    0.5217806535         -1.1246
O32        O    1.0217806535   -0.0217806535    0.4207913759         -1.1314
O33        O    0.9782193465    0.0792086241    0.4782193465         -1.1274
O34        O    1.0792086241    0.0217806535    0.5217806535         -1.1333
O35        O    0.9782193465   -0.0217806535    0.5792086241         -1.1272
O36        O    1.0217806535   -0.0792086241    0.4782193465         -1.1347
O37        O    1.0217806535    0.0217806535    0.5792086241         -1.1286
O38        O    0.9782193465   -0.0792086241    0.5217806535         -1.1333
O39        O    0.9207913759   -0.0217806535    0.5217806535         -1.1324
O40        O    0.9207913759    0.0217806535    0.4782193465         -1.1303
C41        C    1.0000000000    0.0000000000    0.4052964498          0.3876
C42        C    1.0947035502    0.0000000000    0.5000000000          0.3925
C43        C    1.0000000000    0.0947035502    0.5000000000          0.3821
C44        C    1.0000000000    0.0000000000    0.5947035502          0.3859
C45        C    1.0000000000   -0.0947035502    0.5000000000          0.3972
C46        C    0.9052964498    0.0000000000    0.5000000000          0.3877
Zn47      Zn    1.0296364912    0.4703635088   -0.0296364912          1.4972
Zn48      Zn    0.9703635088    0.5296364912   -0.0296364912          1.4936
Zn49      Zn    0.9703635088    0.4703635088    0.0296364912          1.4911
Zn50      Zn    1.0296364912    0.5296364912    0.0296364912          1.4948
O51        O    1.0000000000    0.5000000000    0.0000000000          -2.225
O52        O    1.0217806535    0.4782193465   -0.0792086241         -1.1313
O53        O    0.9207913759    0.5217806535   -0.0217806535         -1.1295
O54        O    0.9782193465    0.4207913759    0.0217806535         -1.1246
O55        O    0.9782193465    0.5217806535   -0.0792086241         -1.1314
O56        O    1.0217806535    0.4207913759   -0.0217806535         -1.1274
O57        O    0.9207913759    0.4782193465    0.0217806535         -1.1333
O58        O    1.0217806535    0.5217806535    0.0792086241         -1.1272
O59        O    0.9782193465    0.5792086241   -0.0217806535         -1.1347
O60        O    0.9782193465    0.4782193465    0.0792086241         -1.1286
O61        O    1.0217806535    0.5792086241    0.0217806535         -1.1333
O62        O    1.0792086241    0.5217806535    0.0217806535         -1.1324
O63        O    1.0792086241    0.4782193465   -0.0217806535         -1.1303
C64        C    1.0000000000    0.5000000000   -0.0947035502          0.3876
C65        C    0.9052964498    0.5000000000    0.0000000000          0.3925
C66        C    1.0000000000    0.4052964498    0.0000000000          0.3821
C67        C    1.0000000000    0.5000000000    0.0947035502          0.3859
C68        C    1.0000000000    0.5947035502    0.0000000000          0.3972
C69        C    1.0947035502    0.5000000000    0.0000000000          0.3877
Zn70      Zn    0.9703635088    0.4703635088    0.5296364912          1.4972
Zn71      Zn    1.0296364912    0.4703635088    0.4703635088          1.4936
Zn72      Zn    0.9703635088    0.5296364912    0.4703635088          1.4911
Zn73      Zn    1.0296364912    0.5296364912    0.5296364912          1.4948
O74        O    1.0000000000    0.5000000000    0.5000000000          -2.225
O75        O    0.9782193465    0.4207913759    0.5217806535         -1.1313
O76        O    1.0217806535    0.4782193465    0.4207913759         -1.1295
O77        O    0.9207913759    0.5217806535    0.4782193465         -1.1246
O78        O    1.0217806535    0.4207913759    0.4782193465         -1.1314
O79        O    0.9207913759    0.4782193465    0.5217806535         -1.1274
O80        O    0.9782193465    0.5217806535    0.4207913759         -1.1333
O81        O    1.0217806535    0.5792086241    0.5217806535         -1.1272
O82        O    1.0792086241    0.4782193465    0.4782193465         -1.1347
O83        O    0.9782193465    0.5792086241    0.4782193465         -1.1286
O84        O    1.0792086241    0.5217806535    0.5217806535         -1.1333
O85        O    1.0217806535    0.5217806535    0.5792086241         -1.1324
O86        O    0.9782193465    0.4782193465    0.5792086241         -1.1303
C87        C    1.0000000000    0.4052964498    0.5000000000          0.3876
C88        C    1.0000000000    0.5000000000    0.4052964498          0.3925
C89        C    0.9052964498    0.5000000000    0.5000000000          0.3821
C90        C    1.0000000000    0.5947035502    0.5000000000          0.3859
C91        C    1.0947035502    0.5000000000    0.5000000000          0.3972
C92        C    1.0000000000    0.5000000000    0.5947035502          0.3877
Zn93      Zn    0.4703635088    0.9703635088   -0.0296364912          1.4972
Zn94      Zn    0.4703635088    1.0296364912    0.0296364912          1.4936
Zn95      Zn    0.5296364912    0.9703635088    0.0296364912          1.4911
Zn96      Zn    0.5296364912    1.0296364912   -0.0296364912          1.4948
O97        O    0.5000000000    1.0000000000    0.0000000000          -2.225
O98        O    0.4207913759    0.9782193465   -0.0217806535         -1.1313
O99        O    0.4782193465    1.0217806535    0.0792086241         -1.1295
O100       O    0.5217806535    0.9207913759    0.0217806535         -1.1246
O101       O    0.4207913759    1.0217806535    0.0217806535         -1.1314
O102       O    0.4782193465    0.9207913759   -0.0217806535         -1.1274
O103       O    0.5217806535    0.9782193465    0.0792086241         -1.1333
O104       O    0.5792086241    1.0217806535   -0.0217806535         -1.1272
O105       O    0.4782193465    1.0792086241    0.0217806535         -1.1347
O106       O    0.5792086241    0.9782193465    0.0217806535         -1.1286
O107       O    0.5217806535    1.0792086241   -0.0217806535         -1.1333
O108       O    0.5217806535    1.0217806535   -0.0792086241         -1.1324
O109       O    0.4782193465    0.9782193465   -0.0792086241         -1.1303
C110       C    0.4052964498    1.0000000000    0.0000000000          0.3876
C111       C    0.5000000000    1.0000000000    0.0947035502          0.3925
C112       C    0.5000000000    0.9052964498    0.0000000000          0.3821
C113       C    0.5947035502    1.0000000000    0.0000000000          0.3859
C114       C    0.5000000000    1.0947035502    0.0000000000          0.3972
C115       C    0.5000000000    1.0000000000   -0.0947035502          0.3877
Zn116     Zn    0.4703635088    0.9703635088    0.4703635088          1.4972
Zn117     Zn    0.4703635088    1.0296364912    0.5296364912          1.4936
Zn118     Zn    0.5296364912    0.9703635088    0.5296364912          1.4911
Zn119     Zn    0.5296364912    1.0296364912    0.4703635088          1.4948
O120       O    0.5000000000    1.0000000000    0.5000000000          -2.225
O121       O    0.4207913759    0.9782193465    0.4782193465         -1.1313
O122       O    0.4782193465    1.0217806535    0.5792086241         -1.1295
O123       O    0.5217806535    0.9207913759    0.5217806535         -1.1246
O124       O    0.4207913759    1.0217806535    0.5217806535         -1.1314
O125       O    0.4782193465    0.9207913759    0.4782193465         -1.1274
O126       O    0.5217806535    0.9782193465    0.5792086241         -1.1333
O127       O    0.5792086241    1.0217806535    0.4782193465         -1.1272
O128       O    0.4782193465    1.0792086241    0.5217806535         -1.1347
O129       O    0.5792086241    0.9782193465    0.5217806535         -1.1286
O130       O    0.5217806535    1.0792086241    0.4782193465         -1.1333
O131       O    0.5217806535    1.0217806535    0.4207913759         -1.1324
O132       O    0.4782193465    0.9782193465    0.4207913759         -1.1303
C133       C    0.4052964498    1.0000000000    0.5000000000          0.3876
C134       C    0.5000000000    1.0000000000    0.5947035502          0.3925
C135       C    0.5000000000    0.9052964498    0.5000000000          0.3821
C136       C    0.5947035502    1.0000000000    0.5000000000          0.3859
C137       C    0.5000000000    1.0947035502    0.5000000000          0.3972
C138       C    0.5000000000    1.0000000000    0.4052964498          0.3877
Zn139     Zn    0.4703635088    0.5296364912   -0.0296364912          1.4972
Zn140     Zn    0.4703635088    0.4703635088    0.0296364912          1.4936
Zn141     Zn    0.5296364912    0.4703635088   -0.0296364912          1.4911
Zn142     Zn    0.5296364912    0.5296364912    0.0296364912          1.4948
O143       O    0.5000000000    0.5000000000    0.0000000000          -2.225
O144       O    0.4207913759    0.5217806535   -0.0217806535         -1.1313
O145       O    0.4782193465    0.4207913759    0.0217806535         -1.1295
O146       O    0.5217806535    0.4782193465   -0.0792086241         -1.1246
O147       O    0.4207913759    0.4782193465    0.0217806535         -1.1314
O148       O    0.4782193465    0.5217806535   -0.0792086241         -1.1274
O149       O    0.5217806535    0.4207913759   -0.0217806535         -1.1333
O150       O    0.5792086241    0.5217806535    0.0217806535         -1.1272
O151       O    0.4782193465    0.4782193465    0.0792086241         -1.1347
O152       O    0.5792086241    0.4782193465   -0.0217806535         -1.1286
O153       O    0.5217806535    0.5217806535    0.0792086241         -1.1333
O154       O    0.5217806535    0.5792086241    0.0217806535         -1.1324
O155       O    0.4782193465    0.5792086241   -0.0217806535         -1.1303
C156       C    0.4052964498    0.5000000000    0.0000000000          0.3876
C157       C    0.5000000000    0.4052964498    0.0000000000          0.3925
C158       C    0.5000000000    0.5000000000   -0.0947035502          0.3821
C159       C    0.5947035502    0.5000000000    0.0000000000          0.3859
C160       C    0.5000000000    0.5000000000    0.0947035502          0.3972
C161       C    0.5000000000    0.5947035502    0.0000000000          0.3877
Zn162     Zn    0.4703635088    0.5296364912    0.4703635088          1.4972
Zn163     Zn    0.4703635088    0.4703635088    0.5296364912          1.4936
Zn164     Zn    0.5296364912    0.4703635088    0.4703635088          1.4911
Zn165     Zn    0.5296364912    0.5296364912    0.5296364912          1.4948
O166       O    0.5000000000    0.5000000000    0.5000000000          -2.225
O167       O    0.4207913759    0.5217806535    0.4782193465         -1.1313
O168       O    0.4782193465    0.4207913759    0.5217806535         -1.1295
O169       O    0.5217806535    0.4782193465    0.4207913759         -1.1246
O170       O    0.4207913759    0.4782193465    0.5217806535         -1.1314
O171       O    0.4782193465    0.5217806535    0.4207913759         -1.1274
O172       O    0.5217806535    0.4207913759    0.4782193465         -1.1333
O173       O    0.5792086241    0.5217806535    0.5217806535         -1.1272
O174       O    0.4782193465    0.4782193465    0.5792086241         -1.1347
O175       O    0.5792086241    0.4782193465    0.4782193465         -1.1286
O176       O    0.5217806535    0.5217806535    0.5792086241         -1.1333
O177       O    0.5217806535    0.5792086241    0.5217806535         -1.1324
O178       O    0.4782193465    0.5792086241    0.4782193465         -1.1303
C179       C    0.4052964498    0.5000000000    0.5000000000          0.3876
C180       C    0.5000000000    0.4052964498    0.5000000000          0.3925
C181       C    0.5000000000    0.5000000000    0.4052964498          0.3821
C182       C    0.5947035502    0.5000000000    0.5000000000          0.3859
C183       C    0.5000000000    0.5000000000    0.5947035502          0.3972
C184       C    0.5000000000    0.5947035502    0.5000000000          0.3877
C691       C    0.5000000000    0.5000000000   -0.3645898886          0.6098
C692       C    0.5277640790    0.4961108376   -0.3421865106          0.6081
C693       C    0.5240521666    0.4984881942   -0.3072569164          0.6089
C694       C    0.4917654437    0.5055980534   -0.2924742950         -0.3855
C695       C    0.4635549549    0.5087738291   -0.3149329944          -0.382
C696       C    0.4679255156    0.5060952849   -0.3500017175         -0.3831
C697       C    0.4914932165    0.4990213482   -0.2567480757          0.6073
H698       H    0.5472648949    0.4950209727   -0.2904764905          0.6053
F699       F    0.5610408459    0.4892595493   -0.3526303750          0.6026
Cl700     Cl    0.4294516104    0.5113156428   -0.3742770874         -0.3777
H701       H    0.4374335430    0.5137285222   -0.3039521453         -0.3782
C702       C    0.5089422849    0.5207915959   -0.2351874640         -0.3741
C703       C    0.5172910433    0.5134964282   -0.1965350921          -0.382
H704       H    0.5220768641    0.5440167609   -0.2459838462          -0.353
H705       H    0.4794549259    0.4749701876   -0.2465691354          0.5855
C706       C    0.4862603399    0.5118344639   -0.1700711229         -0.3846
N707       N    0.5000000000    0.5000000000   -0.1354101114          0.6036
N708       N    0.5187431715    0.4821426873   -0.1490412035          0.5883
N709       N    0.5306819328    0.4930332898   -0.1806872917          0.5993
H710       H    0.4738771841    0.5378130450   -0.1674411655         -0.3617
H711       H    0.4657523193    0.4934319326   -0.1794023737          0.5992
H712       H    0.5368469781    0.5327483347   -0.1872619069         -0.3652
C669       C    0.5000000000    0.5000000000    0.1354101114          0.6122
C670       C    0.4975412728    0.4720728747    0.1578134894          0.6081
C671       C    0.4997249386    0.4759019375    0.1927430836          0.6089
C672       C    0.5051679397    0.5085110821    0.2075257050         -0.3855
C673       C    0.5068913037    0.5368474059    0.1850670056          -0.382
C674       C    0.5044406601    0.5323451014    0.1499982825         -0.3831
C675       C    0.4985859312    0.5084453262    0.2432519243          0.6073
H676       H    0.4974539461    0.4525418225    0.2095235095          0.6053
F677       F    0.4924073270    0.4384882657    0.1473696250          0.6026
Cl678     Cl    0.5076790239    0.5710362699    0.1257229126         -0.3777
H679       H    0.5104984852    0.5631887305    0.1960478547         -0.3782
C680       C    0.5212232450    0.4921368713    0.2648125360         -0.3741
C681       C    0.5143662915    0.4834246140    0.3034649079          -0.382
H682       H    0.5450920673    0.4802119068    0.2540161538          -0.353
H683       H    0.4739484818    0.5192330440    0.2534308646          0.5855
C684       C    0.5111135150    0.5143290817    0.3299288771         -0.3846
N685       N    0.5000000000    0.5000000000    0.3645898886          0.6036
N686       N    0.4831284400    0.4803648133    0.3509587965          0.5883
N687       N    0.4946175751    0.4690008782    0.3193127083          0.5993
H688       H    0.5364221349    0.5280295553    0.3325588345         -0.3617
H689       H    0.4916824415    0.5338653416    0.3205976263          0.5992
H690       H    0.5345967435    0.4648827883    0.3127380931         -0.3652
C647       C    0.5000000000    0.6354101114    0.5000000000          0.6122
C648       C    0.4730904517    0.6578134894    0.5078642150          0.6081
C649       C    0.4774514242    0.6927430836    0.5085061159          0.6089
C650       C    0.5098076279    0.7075257050    0.5017194631         -0.3855
C651       C    0.5368309783    0.6850670056    0.4930214307          -0.382
C652       C    0.5317457707    0.6499982825    0.4923756255         -0.3831
C653       C    0.5073530745    0.7432519243    0.4956119001          0.6073
H654       H    0.4548645390    0.7095235095    0.5148845945          0.6053
F655       F    0.4399379300    0.6473696250    0.5152934590          0.6026
Cl656     Cl    0.5689660533    0.6257229126    0.4813237439         -0.3777
H657       H    0.5626808653    0.6960478547    0.4868036752         -0.3782
C658       C    0.5003921299    0.7648125360    0.5226296521         -0.3741
C659       C    0.4897829511    0.8034649079    0.5194099373          -0.382
H660       H    0.4979624191    0.7540161538    0.5492007259          -0.353
H661       H    0.5084439004    0.7534308646    0.4687383282          0.5855
C662       C    0.5173892716    0.8299288771    0.5051425706         -0.3846
N663       N    0.5000000000    0.8645898886    0.5000000000          0.6036
N664       N    0.4755741288    0.8509587965    0.4914228846          0.5883
N665       N    0.4691656399    0.8193127083    0.5062576585          0.5993
H666       H    0.5393544763    0.8325588345    0.5237371667         -0.3617
H667       H    0.5285229073    0.8205976263    0.4799379237          0.5992
H668       H    0.4798663448    0.8127380931    0.5449976572         -0.3652
C625       C    0.5000000000    1.1354101114    0.5000000000          0.6122
C626       C    0.4722359210    1.1578134894    0.4961108376          0.6081
C627       C    0.4759478334    1.1927430836    0.4984881942          0.6089
C628       C    0.5082345563    1.2075257050    0.5055980534         -0.3855
C629       C    0.5364450451    1.1850670056    0.5087738291          -0.382
C630       C    0.5320744844    1.1499982825    0.5060952849         -0.3831
C631       C    0.5085067835    1.2432519243    0.4990213482          0.6073
H632       H    0.4527351051    1.2095235095    0.4950209727          0.6053
F633       F    0.4389591541    1.1473696250    0.4892595493          0.6026
Cl634     Cl    0.5705483896    1.1257229126    0.5113156428         -0.3777
H635       H    0.5625664570    1.1960478547    0.5137285222         -0.3782
C636       C    0.4910577151    1.2648125360    0.5207915959         -0.3741
C637       C    0.4827089567    1.3034649079    0.5134964282          -0.382
H638       H    0.4779231359    1.2540161538    0.5440167609          -0.353
H639       H    0.5205450741    1.2534308646    0.4749701876          0.5855
C640       C    0.5137396601    1.3299288771    0.5118344639         -0.3846
N641       N    0.5000000000    1.3645898886    0.5000000000          0.6036
N642       N    0.4812568285    1.3509587965    0.4821426873          0.5883
N643       N    0.4693180672    1.3193127083    0.4930332898          0.5993
H644       H    0.5261228159    1.3325588345    0.5378130450         -0.3617
H645       H    0.5342476807    1.3205976263    0.4934319326          0.5992
H646       H    0.4631530219    1.3127380931    0.5327483347         -0.3652
C603       C    0.5000000000    0.6354101114    0.0000000000          0.6122
C604       C    0.5279518182    0.6578134894   -0.0021599838          0.6081
C605       C    0.5238161852    0.6927430836   -0.0036853224          0.6089
C606       C    0.4907559016    0.7075257050   -0.0037003735         -0.3855
C607       C    0.4625211772    0.6850670056   -0.0007478202          -0.382
C608       C    0.4673647503    0.6499982825    0.0009303337         -0.3831
C609       C    0.4919014624    0.7432519243    0.0027815128          0.6073
H610       H    0.5472321486    0.7095235095   -0.0052806376          0.6053
F611       F    0.5619235842    0.6473696250   -0.0026099548          0.6026
Cl612     Cl    0.4286669617    0.6257229126    0.0040886053         -0.3777
H613       H    0.4359450743    0.6960478547    0.0000189233         -0.3782
C614       C    0.5042717809    0.7648125360   -0.0222262639         -0.3741
C615       C    0.5139916427    0.8034649079   -0.0168928295          -0.382
H616       H    0.5121158973    0.7540161538   -0.0477291127          -0.353
H617       H    0.4853053594    0.7534308646    0.0288558333          0.5855
C618       C    0.4840406577    0.8299288771   -0.0086100053         -0.3846
N619       N    0.5000000000    0.8645898886    0.0000000000          0.6036
N620       N    0.5221388481    0.8509587965    0.0134186996          0.5883
N621       N    0.5314621647    0.8193127083    0.0002196460          0.5993
H622       H    0.4663707041    0.8325588345   -0.0313256818         -0.3617
H623       H    0.4679599081    0.8205976263    0.0137650157          0.5992
H624       H    0.5289602041    0.8127380931   -0.0398931047         -0.3652
C581       C    0.5000000000    1.1354101114    0.0000000000          0.6122
C582       C    0.5209816919    1.1578134894   -0.0185940387          0.6081
C583       C    0.5167637216    1.1927430836   -0.0173138648          0.6089
C584       C    0.4903962766    1.2075257050    0.0026295656         -0.3855
C585       C    0.4696674295    1.1850670056    0.0220262698          -0.382
C586       C    0.4745420679    1.1499982825    0.0204406149         -0.3831
C587       C    0.4952221255    1.2432519243    0.0071059862          0.6073
H588       H    0.5344698975    1.2095235095   -0.0327198283          0.6053
F589       F    0.5477951545    1.1473696250   -0.0394584002          0.6026
Cl590     Cl    0.4455953839    1.1257229126    0.0463169171         -0.3777
H591       H    0.4489416002    1.1960478547    0.0386791115         -0.3782
C592       C    0.4899898764    1.2648125360   -0.0202990725         -0.3741
C593       C    0.5009586450    1.3034649079   -0.0219138028          -0.382
H594       H    0.4808501400    1.2540161538   -0.0453667944          -0.353
H595       H    0.5057018248    1.2534308646    0.0318760219          0.5855
C596       C    0.4820788454    1.3299288771    0.0027685765         -0.3846
N597       N    0.5000000000    1.3645898886    0.0000000000          0.6036
N598       N    0.5257505249    1.3509587965   -0.0026646876          0.5883
N599       N    0.5252167891    1.3193127083   -0.0188156743          0.5993
H600       H    0.4542795648    1.3325588345   -0.0046765034         -0.3617
H601       H    0.4827636848    1.3205976263    0.0303142307          0.5992
H602       H    0.4990096702    1.3127380931   -0.0492866358         -0.3652
C559       C    0.5000000000    1.0000000000   -0.3645898886          0.6122
C560       C    0.4965768037    0.9721746268   -0.3421865106          0.6081
C561       C    0.4988916021    0.9759258701   -0.3072569164          0.6089
C562       C    0.5054592278    1.0083272415   -0.2924742950         -0.3855
C563       C    0.5081616543    1.0365870030   -0.3149329944          -0.382
C564       C    0.5055567518    1.0321721550   -0.3500017175         -0.3831
C565       C    0.4988788833    1.0084891827   -0.2567480757          0.6073
H566       H    0.4958139915    0.9526582813   -0.2904764905          0.6053
F567       F    0.4902843091    0.9387876851   -0.3526303750          0.6026
Cl568     Cl    0.5101314237    1.0707281649   -0.3742770874         -0.3777
H569       H    0.5126777682    1.0627878018   -0.3039521453         -0.3782
C570       C    0.5209385772    0.9914075089   -0.2351874640         -0.3741
C571       C    0.5137843880    0.9829376321   -0.1965350921          -0.382
H572       H    0.5443806586    0.9786641075   -0.2459838462          -0.353
H573       H    0.4746292998    1.0201226030   -0.2465691354          0.5855
C574       C    0.5116024779    1.0139361151   -0.1700711229         -0.3846
N575       N    0.5000000000    1.0000000000   -0.1354101114          0.6036
N576       N    0.4824593953    0.9809601134   -0.1490412035          0.5883
N577       N    0.4935486015    0.9692055929   -0.1806872917          0.5993
H578       H    0.5373698252    1.0267530195   -0.1674411655         -0.3617
H579       H    0.4928587488    1.0341327654   -0.1794023737          0.5992
H580       H    0.5333614128    0.9637071721   -0.1872619069         -0.3652
C537       C    0.5000000000    1.0000000000    0.3645898886          0.6122
C538       C    0.5024587272    0.9720728747    0.3421865106          0.6081
C539       C    0.5002750614    0.9759019375    0.3072569164          0.6089
C540       C    0.4948320603    1.0085110821    0.2924742950         -0.3855
C541       C    0.4931086963    1.0368474059    0.3149329944          -0.382
C542       C    0.4955593399    1.0323451014    0.3500017175         -0.3831
C543       C    0.5014140688    1.0084453262    0.2567480757          0.6073
H544       H    0.5025460539    0.9525418225    0.2904764905          0.6053
F545       F    0.5075926730    0.9384882657    0.3526303750          0.6026
Cl546     Cl    0.4923209761    1.0710362699    0.3742770874         -0.3777
H547       H    0.4895015148    1.0631887305    0.3039521453         -0.3782
C548       C    0.4787767550    0.9921368713    0.2351874640         -0.3741
C549       C    0.4856337085    0.9834246140    0.1965350921          -0.382
H550       H    0.4549079327    0.9802119068    0.2459838462          -0.353
H551       H    0.5260515182    1.0192330440    0.2465691354          0.5855
C552       C    0.4888864850    1.0143290817    0.1700711229         -0.3846
N553       N    0.5000000000    1.0000000000    0.1354101114          0.6036
N554       N    0.5168715600    0.9803648133    0.1490412035          0.5883
N555       N    0.5053824249    0.9690008782    0.1806872917          0.5993
H556       H    0.4635778651    1.0280295553    0.1674411655         -0.3617
H557       H    0.5083175585    1.0338653416    0.1794023737          0.5992
H558       H    0.4654032565    0.9648827883    0.1872619069         -0.3652
C515       C    0.6354101114    0.5000000000    0.5000000000          0.6122
C516       C    0.6578134894    0.5178251394    0.4783612830          0.6081
C517       C    0.6927430836    0.5166979388    0.4826226838          0.6089
C518       C    0.7075257050    0.4977185473    0.5096923213         -0.3855
C519       C    0.6850670056    0.4790821447    0.5311073098          -0.382
C520       C    0.6499982825    0.4804909418    0.5261786496         -0.3831
C521       C    0.7432519243    0.4930709735    0.5050310751          0.6073
H522       H    0.7095235095    0.5314552239    0.4643723437          0.6053
F523       F    0.6473696250    0.5377087751    0.4508127006          0.6026
Cl524     Cl    0.6257229126    0.4556755712    0.5560398436         -0.3777
H525       H    0.6960478547    0.4631877102    0.5524203127         -0.3782
C526       C    0.7648125360    0.5206469240    0.5092714318         -0.3741
C527       C    0.8034649079    0.5218649652    0.4982515582          -0.382
H528       H    0.7540161538    0.5460279999    0.5175010398          -0.353
H529       H    0.7534308646    0.4679390582    0.4954516386          0.5855
C530       C    0.8299288771    0.4978796327    0.5180093542         -0.3846
N531       N    0.8645898886    0.5000000000    0.5000000000          0.6036
N532       N    0.8509587965    0.5017341442    0.4741701174          0.5883
N533       N    0.8193127083    0.5178938728    0.4741209474          0.5993
H534       H    0.8325588345    0.5063225750    0.5455220049         -0.3617
H535       H    0.8205976263    0.4703272011    0.5183185193          0.5992
H536       H    0.8127380931    0.5492902849    0.4992119395         -0.3652
C493       C    1.1354101114    0.5000000000    0.5000000000          0.6122
C494       C    1.1578134894    0.5178251394    0.4783612830          0.6081
C495       C    1.1927430836    0.5166979388    0.4826226838          0.6089
C496       C    1.2075257050    0.4977185473    0.5096923213         -0.3855
C497       C    1.1850670056    0.4790821447    0.5311073098          -0.382
C498       C    1.1499982825    0.4804909418    0.5261786496         -0.3831
C499       C    1.2432519243    0.4930709735    0.5050310751          0.6073
H500       H    1.2095235095    0.5314552239    0.4643723437          0.6053
F501       F    1.1473696250    0.5377087751    0.4508127006          0.6026
Cl502     Cl    1.1257229126    0.4556755712    0.5560398436         -0.3777
H503       H    1.1960478547    0.4631877102    0.5524203127         -0.3782
C504       C    1.2648125360    0.5206469240    0.5092714318         -0.3741
C505       C    1.3034649079    0.5218649652    0.4982515582          -0.382
H506       H    1.2540161538    0.5460279999    0.5175010398          -0.353
H507       H    1.2534308646    0.4679390582    0.4954516386          0.5855
C508       C    1.3299288771    0.4978796327    0.5180093542         -0.3846
N509       N    1.3645898886    0.5000000000    0.5000000000          0.6036
N510       N    1.3509587965    0.5017341442    0.4741701174          0.5883
N511       N    1.3193127083    0.5178938728    0.4741209474          0.5993
H512       H    1.3325588345    0.5063225750    0.5455220049         -0.3617
H513       H    1.3205976263    0.4703272011    0.5183185193          0.5992
H514       H    1.3127380931    0.5492902849    0.4992119395         -0.3652
C471       C    0.6354101114    0.5000000000    0.0000000000          0.6122
C472       C    0.6578134894    0.4911204431   -0.0265917871          0.6081
C473       C    0.6927430836    0.4941339392   -0.0233748071          0.6089
C474       C    0.7075257050    0.5070038556    0.0070775791         -0.3855
C475       C    0.6850670056    0.5152632358    0.0342382100          -0.382
C476       C    0.6499982825    0.5118336575    0.0304284340         -0.3831
C477       C    0.7432519243    0.5005866623    0.0085427719          0.6073
H478       H    0.7095235095    0.4864980003   -0.0455681578          0.6053
F479       F    0.6473696250    0.4783245034   -0.0580647483          0.6026
Cl480     Cl    0.6257229126    0.5239722501    0.0673086197         -0.3777
H481       H    0.6960478547    0.5248914064    0.0590207739         -0.3782
C482       C    0.7648125360    0.5188157682   -0.0125786242         -0.3741
C483       C    0.8034649079    0.5101223748   -0.0194594779          -0.382
H484       H    0.7540161538    0.5392610712   -0.0297225749          -0.353
H485       H    0.7534308646    0.4791295547    0.0247591618          0.5855
C486       C    0.8299288771    0.5141384057    0.0113550994         -0.3846
N487       N    0.8645898886    0.5000000000    0.0000000000          0.6036
N488       N    0.8509587965    0.4790283681   -0.0151782987          0.5883
N489       N    0.8193127083    0.4875630470   -0.0289004888          0.5993
H490       H    0.8325588345    0.5419374810    0.0188009460         -0.3617
H491       H    0.8205976263    0.4997777055    0.0348711016          0.5992
H492       H    0.8127380931    0.5254916111   -0.0421939686         -0.3652
C449       C    1.1354101114    0.5000000000    0.0000000000          0.6122
C450       C    1.1578134894    0.5161874865    0.0228896254          0.6081
C451       C    1.1927430836    0.5123726980    0.0206811175          0.6089
C452       C    1.2075257050    0.4912492109   -0.0047507693         -0.3855
C453       C    1.1850670056    0.4754909847   -0.0283642303          -0.382
C454       C    1.1499982825    0.4798754541   -0.0257085141         -0.3831
C455       C    1.2432519243    0.4969688795   -0.0080084601          0.6073
H456       H    1.2095235095    0.5260981816    0.0397195911          0.6053
F457       F    1.1473696250    0.5375351784    0.0493198999          0.6026
Cl458     Cl    1.1257229126    0.4575939495   -0.0575051818         -0.3777
H459       H    1.1960478547    0.4591098473   -0.0493054690         -0.3782
C460       C    1.2648125360    0.4856237160    0.0174807717         -0.3741
C461       C    1.3034649079    0.4959350419    0.0215548108          -0.382
H462       H    1.2540161538    0.4710071915    0.0398030178          -0.353
H463       H    1.2534308646    0.5128221460   -0.0297352342          0.5855
C464       C    1.3299288771    0.4831827351   -0.0067832440         -0.3846
N465       N    1.3645898886    0.5000000000    0.0000000000          0.6036
N466       N    1.3509587965    0.5244639484    0.0084678996          0.5883
N467       N    1.3193127083    0.5202603932    0.0240714046          0.5993
H468       H    1.3325588345    0.4544180932   -0.0058751725         -0.3617
H469       H    1.3205976263    0.4901324276   -0.0334465867          0.5992
H470       H    1.3127380931    0.4877939556    0.0477615505         -0.3652
C427       C    1.0000000000    0.5000000000   -0.1354101114          0.6122
C428       C    1.0277640790    0.5038891624   -0.1578134894          0.6081
C429       C    1.0240521666    0.5015118058   -0.1927430836          0.6089
C430       C    0.9917654437    0.4944019466   -0.2075257050         -0.3855
C431       C    0.9635549549    0.4912261709   -0.1850670056          -0.382
C432       C    0.9679255156    0.4939047151   -0.1499982825         -0.3831
C433       C    0.9914932165    0.5009786518   -0.2432519243          0.6073
H434       H    1.0472648949    0.5049790273   -0.2095235095          0.6053
F435       F    1.0610408459    0.5107404507   -0.1473696250          0.6026
Cl436     Cl    0.9294516104    0.4886843572   -0.1257229126         -0.3777
H437       H    0.9374335430    0.4862714778   -0.1960478547         -0.3782
C438       C    1.0089422849    0.4792084041   -0.2648125360         -0.3741
C439       C    1.0172910433    0.4865035718   -0.3034649079          -0.382
H440       H    1.0220768641    0.4559832391   -0.2540161538          -0.353
H441       H    0.9794549259    0.5250298124   -0.2534308646          0.5855
C442       C    0.9862603399    0.4881655361   -0.3299288771         -0.3846
N443       N    1.0000000000    0.5000000000   -0.3645898886          0.6036
N444       N    1.0187431715    0.5178573127   -0.3509587965          0.5883
N445       N    1.0306819328    0.5069667102   -0.3193127083          0.5993
H446       H    0.9738771841    0.4621869550   -0.3325588345         -0.3617
H447       H    0.9657523193    0.5065680674   -0.3205976263          0.5992
H448       H    1.0368469781    0.4672516653   -0.3127380931         -0.3652
C405       C    1.0000000000    0.5000000000    0.1354101114          0.6122
C406       C    0.9722359210    0.5038891624    0.1578134894          0.6081
C407       C    0.9759478334    0.5015118058    0.1927430836          0.6089
C408       C    1.0082345563    0.4944019466    0.2075257050         -0.3855
C409       C    1.0364450451    0.4912261709    0.1850670056          -0.382
C410       C    1.0320744844    0.4939047151    0.1499982825         -0.3831
C411       C    1.0085067835    0.5009786518    0.2432519243          0.6073
H412       H    0.9527351051    0.5049790273    0.2095235095          0.6053
F413       F    0.9389591541    0.5107404507    0.1473696250          0.6026
Cl414     Cl    1.0705483896    0.4886843572    0.1257229126         -0.3777
H415       H    1.0625664570    0.4862714778    0.1960478547         -0.3782
C416       C    0.9910577151    0.4792084041    0.2648125360         -0.3741
C417       C    0.9827089567    0.4865035718    0.3034649079          -0.382
H418       H    0.9779231359    0.4559832391    0.2540161538          -0.353
H419       H    1.0205450741    0.5250298124    0.2534308646          0.5855
C420       C    1.0137396601    0.4881655361    0.3299288771         -0.3846
N421       N    1.0000000000    0.5000000000    0.3645898886          0.6036
N422       N    0.9812568285    0.5178573127    0.3509587965          0.5883
N423       N    0.9693180672    0.5069667102    0.3193127083          0.5993
H424       H    1.0261228159    0.4621869550    0.3325588345         -0.3617
H425       H    1.0342476807    0.5065680674    0.3205976263          0.5992
H426       H    0.9631530219    0.4672516653    0.3127380931         -0.3652
C383       C    1.0000000000   -0.1354101114    0.5000000000          0.6122
C384       C    1.0277640790   -0.1578134894    0.4961108376          0.6081
C385       C    1.0240521666   -0.1927430836    0.4984881942          0.6089
C386       C    0.9917654437   -0.2075257050    0.5055980534         -0.3855
C387       C    0.9635549549   -0.1850670056    0.5087738291          -0.382
C388       C    0.9679255156   -0.1499982825    0.5060952849         -0.3831
C389       C    0.9914932165   -0.2432519243    0.4990213482          0.6073
H390       H    1.0472648949   -0.2095235095    0.4950209727          0.6053
F391       F    1.0610408459   -0.1473696250    0.4892595493          0.6026
Cl392     Cl    0.9294516104   -0.1257229126    0.5113156428         -0.3777
H393       H    0.9374335430   -0.1960478547    0.5137285222         -0.3782
C394       C    1.0089422849   -0.2648125360    0.5207915959         -0.3741
C395       C    1.0172910433   -0.3034649079    0.5134964282          -0.382
H396       H    1.0220768641   -0.2540161538    0.5440167609          -0.353
H397       H    0.9794549259   -0.2534308646    0.4749701876          0.5855
C398       C    0.9862603399   -0.3299288771    0.5118344639         -0.3846
N399       N    1.0000000000   -0.3645898886    0.5000000000          0.6036
N400       N    1.0187431715   -0.3509587965    0.4821426873          0.5883
N401       N    1.0306819328   -0.3193127083    0.4930332898          0.5993
H402       H    0.9738771841   -0.3325588345    0.5378130450         -0.3617
H403       H    0.9657523193   -0.3205976263    0.4934319326          0.5992
H404       H    1.0368469781   -0.3127380931    0.5327483347         -0.3652
C361       C    1.0000000000    0.1354101114    0.5000000000          0.6122
C362       C    1.0066885255    0.1578134894    0.4727744000          0.6081
C363       C    1.0039465107    0.1927430836    0.4762257002          0.6089
C364       C    0.9935946596    0.2075257050    0.5076234988         -0.3855
C365       C    0.9875704995    0.1850670056    0.5353656459          -0.382
C366       C    0.9906790312    0.1499982825    0.5312896882         -0.3831
C367       C    1.0001097205    0.2432519243    0.5085621893          0.6073
H368       H    1.0097530826    0.2095235095    0.4534850736          0.6053
F369       F    1.0168836824    0.1473696250    0.4403654176          0.6026
Cl370     Cl    0.9815785989    0.1257229126    0.5690345641         -0.3777
H371       H    0.9799887661    0.1960478547    0.5608488651         -0.3782
C372       C    0.9802239872    0.2648125360    0.4889925372         -0.3741
C373       C    0.9883292657    0.3034649079    0.4814277704          -0.382
H374       H    0.9584527175    0.2540161538    0.4735673217          -0.353
H375       H    1.0228140449    0.2534308646    0.5229806644          0.5855
C376       C    0.9868314406    0.3299288771    0.5124668296         -0.3846
N377       N    1.0000000000    0.3645898886    0.5000000000          0.6036
N378       N    1.0196683834    0.3509587965    0.4831671516          0.5883
N379       N    1.0100464742    0.3193127083    0.4701841585          0.5993
H380       H    0.9597296387    0.3325588345    0.5221478189         -0.3617
H381       H    1.0030562281    0.3205976263    0.5347376253          0.5992
H382       H    0.9711628089    0.3127380931    0.4600178836         -0.3652
C339       C    0.6354101114   -0.0000000000    0.5000000000          0.6122
C340       C    0.6578134894    0.0157830110    0.5231703740          0.6081
C341       C    0.6927430836    0.0120075958    0.5208952128          0.6089
C342       C    0.7075257050   -0.0086660083    0.4950962852         -0.3855
C343       C    0.6850670056   -0.0240071135    0.4712097257          -0.382
C344       C    0.6499982825   -0.0196699589    0.4739420307         -0.3831
C345       C    0.7432519243   -0.0028900114    0.4919395435          0.6073
H346       H    0.7095235095    0.0253966160    0.5401717923          0.6053
F347       F    0.6473696250    0.0366632520    0.5499714729          0.6026
Cl348     Cl    0.6257229126   -0.0413896260    0.4417589671         -0.3777
H349       H    0.6960478547   -0.0400179623    0.4499840370         -0.3782
C350       C    0.7648125360   -0.0146810578    0.5172256049         -0.3741
C351       C    0.8034649079   -0.0044428688    0.5214800994          -0.382
H352       H    0.7540161538   -0.0296873432    0.5392877185          -0.353
H353       H    0.7534308646    0.0133423678    0.4704945293          0.5855
C354       C    0.8299288771   -0.0166955466    0.4929224635         -0.3846
N355       N    0.8645898886   -0.0000000000    0.5000000000          0.6036
N356       N    0.8509587965    0.0243114655    0.5088962205          0.5883
N357       N    0.8193127083    0.0198345356    0.5244234979          0.5993
H358       H    0.8325588345   -0.0454716997    0.4933252410         -0.3617
H359       H    0.8205976263   -0.0092786740    0.4663852807          0.5992
H360       H    0.8127380931   -0.0130429327    0.5475398268         -0.3652
C317       C    1.3645898886   -0.0000000000    0.5000000000          0.6122
C318       C    1.3421865106   -0.0130005226    0.5248386006          0.6081
C319       C    1.3072569164   -0.0095132296    0.5221425098          0.6089
C320       C    1.2924742950    0.0080414706    0.4941279586         -0.3855
C321       C    1.3149329944    0.0205203073    0.4686290201          -0.382
C322       C    1.3500017175    0.0165278488    0.4718440901         -0.3831
C323       C    1.2567480757    0.0019394582    0.4916596387          0.6073
H324       H    1.2904764905   -0.0205856304    0.5428368162          0.6053
F325       F    1.3526303750   -0.0306446981    0.5538724849          0.6026
Cl326     Cl    1.3742770874    0.0343840661    0.4373673004         -0.3777
H327       H    1.3039521453    0.0339718065    0.4456957624         -0.3782
C328       C    1.2351874640    0.0165727851    0.5154142049         -0.3741
C329       C    1.1965350921    0.0068946580    0.5208230027          -0.382
H330       H    1.2459838462    0.0340273690    0.5355949622          -0.353
H331       H    1.2465691354   -0.0166617181    0.4722334962          0.5855
C332       C    1.1700711229    0.0157661098    0.4910410615         -0.3846
N333       N    1.1354101114   -0.0000000000    0.5000000000          0.6036
N334       N    1.1490412035   -0.0231209273    0.5116452915          0.5883
N335       N    1.1806872917   -0.0168801495    0.5265513955          0.5993
H336       H    1.1674411655    0.0443961185    0.4881167116         -0.3617
H337       H    1.1794023737    0.0053331300    0.4655384146          0.5992
H338       H    1.1872619069    0.0184477478    0.5457147003         -0.3652
C295       C   -0.0000000000   -0.3645898886    0.0000000000          0.6122
C296       C   -0.0032534257   -0.3421865106   -0.0278457338          0.6081
C297       C   -0.0046155669   -0.3072569164   -0.0236535160          0.6089
C298       C   -0.0033353659   -0.2924742950    0.0093819749         -0.3855
C299       C    0.0007211046   -0.3149329944    0.0374793463          -0.382
C300       C    0.0022082079   -0.3500017175    0.0325737450         -0.3831
C301       C    0.0030966629   -0.2567480757    0.0079833454          0.6073
H302       H   -0.0071270512   -0.2904764905   -0.0469890002          0.6053
F303       F   -0.0050340019   -0.3526303750   -0.0617737887          0.6026
Cl304     Cl    0.0068801621   -0.3742770874    0.0711180879         -0.3777
H305       H    0.0025284617   -0.3039521453    0.0640050056         -0.3782
C306       C   -0.0223765600   -0.2351874640   -0.0033977174         -0.3741
C307       C   -0.0174280264   -0.1965350921   -0.0133190708          -0.382
H308       H   -0.0481671467   -0.2459838462   -0.0102366573          -0.353
H309       H    0.0294093878   -0.2465691354    0.0135528407          0.5855
C310       C   -0.0079781375   -0.1700711229    0.0162844134         -0.3846
N311       N   -0.0000000000   -0.1354101114    0.0000000000          0.6036
N312       N    0.0125410383   -0.1490412035   -0.0226475705          0.5883
N313       N   -0.0010131517   -0.1806872917   -0.0314466147          0.5993
H314       H   -0.0299840979   -0.1674411655    0.0348307587         -0.3617
H315       H    0.0150097187   -0.1794023737    0.0314762051          0.5992
H316       H   -0.0409970834   -0.1872619069   -0.0273750319         -0.3652
C273       C    0.0000000000    0.1354101114    0.0000000000          0.6122
C274       C    0.0009099148    0.1578134894   -0.0280203805          0.6081
C275       C   -0.0010585666    0.1927430836   -0.0240763725          0.6089
C276       C   -0.0046891556    0.2075257050    0.0087839592         -0.3855
C277       C   -0.0048421949    0.1850670056    0.0371722281          -0.382
C278       C   -0.0026443912    0.1499982825    0.0325412391         -0.3831
C279       C    0.0018791342    0.2432519243    0.0083541594          0.6073
H280       H   -0.0000834327    0.2095235095   -0.0475263510          0.6053
F281       F    0.0041779551    0.1473696250   -0.0618375843          0.6026
Cl282     Cl   -0.0037372361    0.1257229126    0.0713523098         -0.3777
H283       H   -0.0069865383    0.1960478547    0.0636727739         -0.3782
C284       C   -0.0216257619    0.2648125360   -0.0066769262         -0.3741
C285       C   -0.0152613092    0.3034649079   -0.0157551958          -0.382
H286       H   -0.0461177672    0.2540161538   -0.0172631027          -0.353
H287       H    0.0270756721    0.2534308646    0.0177623073          0.5855
C288       C   -0.0103037486    0.3299288771    0.0149219826         -0.3846
N289       N    0.0000000000    0.3645898886    0.0000000000          0.6036
N290       N    0.0157594187    0.3509587965   -0.0205385203          0.5883
N291       N    0.0036591789    0.3193127083   -0.0312494234          0.5993
H292       H   -0.0348156387    0.3325588345    0.0300016530         -0.3617
H293       H    0.0101783937    0.3205976263    0.0333533124          0.5992
H294       H   -0.0364865893    0.3127380931   -0.0331493895         -0.3652
C251       C   -0.1354101114   -0.0000000000    0.0000000000          0.6122
C252       C   -0.1578134894    0.0061914483    0.0273429266          0.6081
C253       C   -0.1927430836    0.0071007982    0.0230297838          0.6089
C254       C   -0.2075257050    0.0023204197   -0.0096830662         -0.3855
C255       C   -0.1850670056   -0.0046962510   -0.0371909481          -0.382
C256       C   -0.1499982825   -0.0056541161   -0.0321551865         -0.3831
C257       C   -0.2432519243   -0.0039267605   -0.0076094466          0.6073
H258       H   -0.2095235095    0.0120756405    0.0459667261          0.6053
F259       F   -0.1473696250    0.0115641382    0.0608901704          0.6026
Cl260     Cl   -0.1257229126   -0.0143919579   -0.0699856457         -0.3777
H261       H   -0.1960478547   -0.0093096503   -0.0633747921         -0.3782
C262       C   -0.2648125360    0.0226108242    0.0010027699         -0.3741
C263       C   -0.3034649079    0.0187436211    0.0113934376          -0.382
H264       H   -0.2540161538    0.0489817369    0.0050648411          -0.353
H265       H   -0.2534308646   -0.0306820819   -0.0103538123          0.5855
C266       C   -0.3299288771    0.0062041105   -0.0170394193         -0.3846
N267       N   -0.3645898886   -0.0000000000    0.0000000000          0.6036
N268       N   -0.3509587965   -0.0100656381    0.0238510592          0.5883
N269       N   -0.3193127083    0.0043461459    0.0311613072          0.5993
H270       H   -0.3325588345    0.0261166054   -0.0378173347         -0.3617
H271       H   -0.3205976263   -0.0182667443   -0.0297046999          0.5992
H272       H   -0.3127380931    0.0436717993    0.0228676008         -0.3652
C229       C    0.1354101114   -0.0000000000    0.0000000000          0.6122
C230       C    0.1578134894   -0.0146762675    0.0238867503          0.6081
C231       C    0.1927430836   -0.0141464929    0.0195107410          0.6089
C232       C    0.2075257050    0.0009253285   -0.0099141256         -0.3855
C233       C    0.1850670056    0.0164359358   -0.0336909692          -0.382
C234       C    0.1499982825    0.0157191117   -0.0286152857         -0.3831
C235       C    0.2432519243    0.0061703861   -0.0059371256          0.6073
H236       H    0.2095235095   -0.0262506179    0.0396190113          0.6053
F237       F    0.1473696250   -0.0305777831    0.0539104937          0.6026
Cl238     Cl    0.1257229126    0.0361870082   -0.0616085992         -0.3777
H239       H    0.1960478547    0.0292447268   -0.0569892956         -0.3782
C240       C    0.2648125360   -0.0217267628   -0.0063405599         -0.3741
C241       C    0.3034649079   -0.0214160343    0.0047420700          -0.382
H242       H    0.2540161538   -0.0479991616   -0.0109974386          -0.353
H243       H    0.2534308646    0.0323818358    0.0000910309          0.5855
C244       C    0.3299288771   -0.0003792777   -0.0181297806         -0.3846
N245       N    0.3645898886   -0.0000000000    0.0000000000          0.6036
N246       N    0.3509587965    0.0018385209    0.0258226632          0.5883
N247       N    0.3193127083   -0.0141605545    0.0280961696          0.5993
H248       H    0.3325588345   -0.0125296487   -0.0442180482         -0.3617
H249       H    0.3205976263    0.0268682168   -0.0222293065          0.5992
H250       H    0.3127380931   -0.0487124132    0.0075666387         -0.3652
C207       C   -0.0000000000    0.0000000000   -0.3645898886          0.6122
C208       C   -0.0276602173    0.0045696881   -0.3421865106          0.6081
C209       C   -0.0240077958    0.0021019086   -0.3072569164          0.6089
C210       C    0.0080946234   -0.0057985508   -0.2924742950         -0.3855
C211       C    0.0362186319   -0.0096660280   -0.3149329944          -0.382
C212       C    0.0319151557   -0.0068809798   -0.3500017175         -0.3831
C213       C    0.0085282480    0.0007694877   -0.2567480757          0.6073
H214       H   -0.0471283944    0.0061380326   -0.2904764905          0.6053
F215       F   -0.0607587306    0.0122359633   -0.3526303750          0.6026
Cl216     Cl    0.0702492853   -0.0130444231   -0.3742770874         -0.3777
H217       H    0.0622105149   -0.0152605927   -0.3039521453         -0.3782
C218       C   -0.0094500901   -0.0205657657   -0.2351874640         -0.3741
C219       C   -0.0176172115   -0.0130678082   -0.1965350921          -0.382
H220       H   -0.0231509626   -0.0434614323   -0.2459838462          -0.353
H221       H    0.0211534432    0.0245178184   -0.2465691354          0.5855
C222       C    0.0134449435   -0.0121682493   -0.1700711229         -0.3846
N223       N    0.0000000000    0.0000000000   -0.1354101114          0.6036
N224       N   -0.0182990659    0.0183121348   -0.1490412035          0.5883
N225       N   -0.0305016276    0.0077179508   -0.1806872917          0.5993
H226       H    0.0251865077   -0.0384430451   -0.1674411655         -0.3617
H227       H    0.0343986232    0.0057251957   -0.1794023737          0.5992
H228       H   -0.0376399474   -0.0318337491   -0.1872619069         -0.3652
C185       C    0.0000000000    0.0000000000    0.3645898886          0.6122
C186       C    0.0278253732    0.0034231963    0.3421865106          0.6081
C187       C    0.0240741299    0.0011083979    0.3072569164          0.6089
C188       C   -0.0083272415   -0.0054592278    0.2924742950         -0.3855
C189       C   -0.0365870030   -0.0081616543    0.3149329944          -0.382
C190       C   -0.0321721550   -0.0055567518    0.3500017175         -0.3831
C191       C   -0.0084891827    0.0011211167    0.2567480757          0.6073
H192       H    0.0473417187    0.0041860085    0.2904764905          0.6053
F193       F    0.0612123149    0.0097156909    0.3526303750          0.6026
Cl194     Cl   -0.0707281649   -0.0101314237    0.3742770874         -0.3777
H195       H   -0.0627878018   -0.0126777682    0.3039521453         -0.3782
C196       C    0.0085924911   -0.0209385772    0.2351874640         -0.3741
C197       C    0.0170623679   -0.0137843880    0.1965350921          -0.382
H198       H    0.0213358925   -0.0443806586    0.2459838462          -0.353
H199       H   -0.0201226030    0.0253707002    0.2465691354          0.5855
C200       C   -0.0139361151   -0.0116024779    0.1700711229         -0.3846
N201       N   -0.0000000000    0.0000000000    0.1354101114          0.6036
N202       N    0.0190398866    0.0175406047    0.1490412035          0.5883
N203       N    0.0307944071    0.0064513985    0.1806872917          0.5993
H204       H   -0.0267530195   -0.0373698252    0.1674411655         -0.3617
H205       H   -0.0341327654    0.0071412512    0.1794023737          0.5992
H206       H    0.0362928279   -0.0333614128    0.1872619069         -0.3652
loop_
_geom_bond_atom_site_label_1
_geom_bond_atom_site_label_2
_geom_bond_distance
_geom_bond_site_symmetry_2
_ccdc_geom_bond_type
Zn1          O5 1.942       .   S
Zn1          O6 1.922       .   S
Zn1         O10 1.922       .   S
Zn1         O17 1.922       .   S
Zn2          O5 1.942       .   S
Zn2          O7 1.922       .   S
Zn2          O9 1.922       .   S
Zn2         O13 1.922       .   S
Zn3          O5 1.942       .   S
Zn3          O8 1.922       .   S
Zn3         O11 1.922       .   S
Zn3         O14 1.922       .   S
Zn4          O5 1.942       .   S
Zn4         O12 1.922       .   S
Zn4         O15 1.922       .   S
Zn4         O16 1.922       .   S
O6          C18 1.304       .   A
O7          C19 1.304       .   A
O8          C20 1.304       .   A
O9          C18 1.304       .   A
O10         C20 1.304       .   A
O11         C19 1.304       .   A
O12         C21 1.304       .   A
O13         C22 1.304       .   A
O14         C21 1.304       .   A
O15         C22 1.304       .   A
O16         C23 1.304       .   A
O17         C23 1.304       .   A
C18        N201 1.540       .   S
C19        C229 1.540       .   S
C20        N311 1.540       .   S
C21        N223 1.540       .   S
C22        C273 1.540       .   S
C23        C251 1.540       .   S
Zn24        O28 1.942       .   S
Zn24        O29 1.922       .   S
Zn24        O33 1.922       .   S
Zn24        O40 1.922       .   S
Zn25        O28 1.942       .   S
Zn25        O30 1.922       .   S
Zn25        O32 1.922       .   S
Zn25        O36 1.922       .   S
Zn26        O28 1.942       .   S
Zn26        O31 1.922       .   S
Zn26        O34 1.922       .   S
Zn26        O37 1.922       .   S
Zn27        O28 1.942       .   S
Zn27        O35 1.922       .   S
Zn27        O38 1.922       .   S
Zn27        O39 1.922       .   S
O29         C41 1.304       .   A
O30         C42 1.304       .   A
O31         C43 1.304       .   A
O32         C41 1.304       .   A
O33         C43 1.304       .   A
O34         C42 1.304       .   A
O35         C44 1.304       .   A
O36         C45 1.304       .   A
O37         C44 1.304       .   A
O38         C45 1.304       .   A
O39         C46 1.304       .   A
O40         C46 1.304       .   A
C41        C185 1.540   1_655   S
C42        N333 1.540       .   S
C43        C361 1.540       .   S
C44        C207 1.540   1_656   S
C45        C383 1.540       .   S
C46        N355 1.540       .   S
Zn47        O51 1.942       .   S
Zn47        O52 1.922       .   S
Zn47        O56 1.922       .   S
Zn47        O63 1.922       .   S
Zn48        O51 1.942       .   S
Zn48        O53 1.922       .   S
Zn48        O55 1.922       .   S
Zn48        O59 1.922       .   S
Zn49        O51 1.942       .   S
Zn49        O54 1.922       .   S
Zn49        O57 1.922       .   S
Zn49        O60 1.922       .   S
Zn50        O51 1.942       .   S
Zn50        O58 1.922       .   S
Zn50        O61 1.922       .   S
Zn50        O62 1.922       .   S
O52         C64 1.304       .   A
O53         C65 1.304       .   A
O54         C66 1.304       .   A
O55         C64 1.304       .   A
O56         C66 1.304       .   A
O57         C65 1.304       .   A
O58         C67 1.304       .   A
O59         C68 1.304       .   A
O60         C67 1.304       .   A
O61         C68 1.304       .   A
O62         C69 1.304       .   A
O63         C69 1.304       .   A
C64        C427 1.540       .   S
C65        N487 1.540       .   S
C66        N289 1.540   1_655   S
C67        C405 1.540       .   S
C68        C295 1.540   1_665   S
C69        C449 1.540       .   S
Zn70        O74 1.942       .   S
Zn70        O75 1.922       .   S
Zn70        O79 1.922       .   S
Zn70        O86 1.922       .   S
Zn71        O74 1.942       .   S
Zn71        O76 1.922       .   S
Zn71        O78 1.922       .   S
Zn71        O82 1.922       .   S
Zn72        O74 1.942       .   S
Zn72        O77 1.922       .   S
Zn72        O80 1.922       .   S
Zn72        O83 1.922       .   S
Zn73        O74 1.942       .   S
Zn73        O81 1.922       .   S
Zn73        O84 1.922       .   S
Zn73        O85 1.922       .   S
O75         C87 1.304       .   A
O76         C88 1.304       .   A
O77         C89 1.304       .   A
O78         C87 1.304       .   A
O79         C89 1.304       .   A
O80         C88 1.304       .   A
O81         C90 1.304       .   A
O82         C91 1.304       .   A
O83         C90 1.304       .   A
O84         C91 1.304       .   A
O85         C92 1.304       .   A
O86         C92 1.304       .   A
C87        N377 1.540       .   S
C88        N421 1.540       .   S
C89        N531 1.540       .   S
C90        N399 1.540   1_565   S
C91        C493 1.540       .   S
C92        N443 1.540   1_556   S
Zn93        O97 1.942       .   S
Zn93        O98 1.922       .   S
Zn93       O102 1.922       .   S
Zn93       O109 1.922       .   S
Zn94        O97 1.942       .   S
Zn94        O99 1.922       .   S
Zn94       O101 1.922       .   S
Zn94       O105 1.922       .   S
Zn95        O97 1.942       .   S
Zn95       O100 1.922       .   S
Zn95       O103 1.922       .   S
Zn95       O106 1.922       .   S
Zn96        O97 1.942       .   S
Zn96       O104 1.922       .   S
Zn96       O107 1.922       .   S
Zn96       O108 1.922       .   S
O98        C110 1.304       .   A
O99        C111 1.304       .   A
O100       C112 1.304       .   A
O101       C110 1.304       .   A
O102       C112 1.304       .   A
O103       C111 1.304       .   A
O104       C113 1.304       .   A
O105       C114 1.304       .   A
O106       C113 1.304       .   A
O107       C114 1.304       .   A
O108       C115 1.304       .   A
O109       C115 1.304       .   A
C110       N245 1.540   1_565   S
C111       N553 1.540       .   S
C112       N619 1.540       .   S
C113       N267 1.540   1_665   S
C114       C581 1.540       .   S
C115       N575 1.540       .   S
Zn116      O120 1.942       .   S
Zn116      O121 1.922       .   S
Zn116      O125 1.922       .   S
Zn116      O132 1.922       .   S
Zn117      O120 1.942       .   S
Zn117      O122 1.922       .   S
Zn117      O124 1.922       .   S
Zn117      O128 1.922       .   S
Zn118      O120 1.942       .   S
Zn118      O123 1.922       .   S
Zn118      O126 1.922       .   S
Zn118      O129 1.922       .   S
Zn119      O120 1.942       .   S
Zn119      O127 1.922       .   S
Zn119      O130 1.922       .   S
Zn119      O131 1.922       .   S
O121       C133 1.304       .   A
O122       C134 1.304       .   A
O123       C135 1.304       .   A
O124       C133 1.304       .   A
O125       C135 1.304       .   A
O126       C134 1.304       .   A
O127       C136 1.304       .   A
O128       C137 1.304       .   A
O129       C136 1.304       .   A
O130       C137 1.304       .   A
O131       C138 1.304       .   A
O132       C138 1.304       .   A
C133       C317 1.540   1_465   S
C134       C559 1.540   1_556   S
C135       N663 1.540       .   S
C136       C339 1.540   1_565   S
C137       C625 1.540       .   S
C138       C537 1.540       .   S
Zn139      O143 1.942       .   S
Zn139      O144 1.922       .   S
Zn139      O148 1.922       .   S
Zn139      O155 1.922       .   S
Zn140      O143 1.942       .   S
Zn140      O145 1.922       .   S
Zn140      O147 1.922       .   S
Zn140      O151 1.922       .   S
Zn141      O143 1.942       .   S
Zn141      O146 1.922       .   S
Zn141      O149 1.922       .   S
Zn141      O152 1.922       .   S
Zn142      O143 1.942       .   S
Zn142      O150 1.922       .   S
Zn142      O153 1.922       .   S
Zn142      O154 1.922       .   S
O144       C156 1.304       .   A
O145       C157 1.304       .   A
O146       C158 1.304       .   A
O147       C156 1.304       .   A
O148       C158 1.304       .   A
O149       C157 1.304       .   A
O150       C159 1.304       .   A
O151       C160 1.304       .   A
O152       C159 1.304       .   A
O153       C160 1.304       .   A
O154       C161 1.304       .   A
O155       C161 1.304       .   A
C156       N465 1.540   1_455   S
C157       N597 1.540   1_545   S
C158       N707 1.540       .   S
C159       C471 1.540       .   S
C160       C669 1.540       .   S
C161       C603 1.540       .   S
Zn162      O166 1.942       .   S
Zn162      O167 1.922       .   S
Zn162      O171 1.922       .   S
Zn162      O178 1.922       .   S
Zn163      O166 1.942       .   S
Zn163      O168 1.922       .   S
Zn163      O170 1.922       .   S
Zn163      O174 1.922       .   S
Zn164      O166 1.942       .   S
Zn164      O169 1.922       .   S
Zn164      O172 1.922       .   S
Zn164      O175 1.922       .   S
Zn165      O166 1.942       .   S
Zn165      O173 1.922       .   S
Zn165      O176 1.922       .   S
Zn165      O177 1.922       .   S
O167       C179 1.304       .   A
O168       C180 1.304       .   A
O169       C181 1.304       .   A
O170       C179 1.304       .   A
O171       C181 1.304       .   A
O172       C180 1.304       .   A
O173       C182 1.304       .   A
O174       C183 1.304       .   A
O175       C182 1.304       .   A
O176       C183 1.304       .   A
O177       C184 1.304       .   A
O178       C184 1.304       .   A
C179       N509 1.540   1_455   S
C180       N641 1.540   1_545   S
C181       N685 1.540       .   S
C182       C515 1.540       .   S
C183       C691 1.540   1_556   S
C184       C647 1.540       .   S
C691       C692 0.032       .   A
C691       C696 0.032       .   A
C692       C693 0.031       .   A
C692       F699 0.032       .   A
C693       C694 0.032       .   A
C693       H698 0.026       .   A
C694       C695 0.032       .   A
C694       C697 0.032       .   A
C695       C696 0.032       .   A
C695       H701 0.026       .   A
C696      Cl700 0.041       .   A
C697       C702 0.031       .   A
C697       H705 0.026       .   A
C702       C703 0.036       .   A
C702       H704 0.026       .   A
C703       C706 0.036       .   A
C703       N709 0.026       .   A
C703       H712 0.026       .   A
C706       N707 0.035       .   A
C706       H710 0.026       .   A
C706       H711 0.026       .   A
N707       N708 0.026       .   A
N708       N709 0.032       .   A
C669       C670 0.032       .   A
C669       C674 0.032       .   A
C670       C671 0.031       .   A
C670       F677 0.032       .   A
C671       C672 0.032       .   A
C671       H676 0.026       .   A
C672       C673 0.032       .   A
C672       C675 0.032       .   A
C673       C674 0.032       .   A
C673       H679 0.026       .   A
C674      Cl678 0.041       .   A
C675       C680 0.031       .   A
C675       H683 0.026       .   A
C680       C681 0.036       .   A
C680       H682 0.026       .   A
C681       C684 0.036       .   A
C681       N687 0.026       .   A
C681       H690 0.026       .   A
C684       N685 0.035       .   A
C684       H688 0.026       .   A
C684       H689 0.026       .   A
N685       N686 0.026       .   A
N686       N687 0.032       .   A
C647       C648 0.032       .   A
C647       C652 0.032       .   A
C648       C649 0.031       .   A
C648       F655 0.032       .   A
C649       C650 0.032       .   A
C649       H654 0.026       .   A
C650       C651 0.032       .   A
C650       C653 0.032       .   A
C651       C652 0.032       .   A
C651       H657 0.026       .   A
C652      Cl656 0.041       .   A
C653       C658 0.031       .   A
C653       H661 0.026       .   A
C658       C659 0.036       .   A
C658       H660 0.026       .   A
C659       C662 0.036       .   A
C659       N665 0.026       .   A
C659       H668 0.026       .   A
C662       N663 0.035       .   A
C662       H666 0.026       .   A
C662       H667 0.026       .   A
N663       N664 0.026       .   A
N664       N665 0.032       .   A
C625       C626 0.032       .   A
C625       C630 0.032       .   A
C626       C627 0.031       .   A
C626       F633 0.032       .   A
C627       C628 0.032       .   A
C627       H632 0.026       .   A
C628       C629 0.032       .   A
C628       C631 0.032       .   A
C629       C630 0.032       .   A
C629       H635 0.026       .   A
C630      Cl634 0.041       .   A
C631       C636 0.031       .   A
C631       H639 0.026       .   A
C636       C637 0.036       .   A
C636       H638 0.026       .   A
C637       C640 0.036       .   A
C637       N643 0.026       .   A
C637       H646 0.026       .   A
C640       N641 0.035       .   A
C640       H644 0.026       .   A
C640       H645 0.026       .   A
N641       N642 0.026       .   A
N642       N643 0.032       .   A
C603       C604 0.032       .   A
C603       C608 0.032       .   A
C604       C605 0.031       .   A
C604       F611 0.032       .   A
C605       C606 0.032       .   A
C605       H610 0.026       .   A
C606       C607 0.032       .   A
C606       C609 0.032       .   A
C607       C608 0.032       .   A
C607       H613 0.026       .   A
C608      Cl612 0.041       .   A
C609       C614 0.031       .   A
C609       H617 0.026       .   A
C614       C615 0.036       .   A
C614       H616 0.026       .   A
C615       C618 0.036       .   A
C615       N621 0.026       .   A
C615       H624 0.026       .   A
C618       N619 0.035       .   A
C618       H622 0.026       .   A
C618       H623 0.026       .   A
N619       N620 0.026       .   A
N620       N621 0.032       .   A
C581       C582 0.032       .   A
C581       C586 0.032       .   A
C582       C583 0.031       .   A
C582       F589 0.032       .   A
C583       C584 0.032       .   A
C583       H588 0.026       .   A
C584       C585 0.032       .   A
C584       C587 0.032       .   A
C585       C586 0.032       .   A
C585       H591 0.026       .   A
C586      Cl590 0.041       .   A
C587       C592 0.031       .   A
C587       H595 0.026       .   A
C592       C593 0.036       .   A
C592       H594 0.026       .   A
C593       C596 0.036       .   A
C593       N599 0.026       .   A
C593       H602 0.026       .   A
C596       N597 0.035       .   A
C596       H600 0.026       .   A
C596       H601 0.026       .   A
N597       N598 0.026       .   A
N598       N599 0.032       .   A
C559       C560 0.032       .   A
C559       C564 0.032       .   A
C560       C561 0.031       .   A
C560       F567 0.032       .   A
C561       C562 0.032       .   A
C561       H566 0.026       .   A
C562       C563 0.032       .   A
C562       C565 0.032       .   A
C563       C564 0.032       .   A
C563       H569 0.026       .   A
C564      Cl568 0.041       .   A
C565       C570 0.031       .   A
C565       H573 0.026       .   A
C570       C571 0.036       .   A
C570       H572 0.026       .   A
C571       C574 0.036       .   A
C571       N577 0.026       .   A
C571       H580 0.026       .   A
C574       N575 0.035       .   A
C574       H578 0.026       .   A
C574       H579 0.026       .   A
N575       N576 0.026       .   A
N576       N577 0.032       .   A
C537       C538 0.032       .   A
C537       C542 0.032       .   A
C538       C539 0.031       .   A
C538       F545 0.032       .   A
C539       C540 0.032       .   A
C539       H544 0.026       .   A
C540       C541 0.032       .   A
C540       C543 0.032       .   A
C541       C542 0.032       .   A
C541       H547 0.026       .   A
C542      Cl546 0.041       .   A
C543       C548 0.031       .   A
C543       H551 0.026       .   A
C548       C549 0.036       .   A
C548       H550 0.026       .   A
C549       C552 0.036       .   A
C549       N555 0.026       .   A
C549       H558 0.026       .   A
C552       N553 0.035       .   A
C552       H556 0.026       .   A
C552       H557 0.026       .   A
N553       N554 0.026       .   A
N554       N555 0.032       .   A
C515       C516 0.032       .   A
C515       C520 0.032       .   A
C516       C517 0.031       .   A
C516       F523 0.032       .   A
C517       C518 0.032       .   A
C517       H522 0.026       .   A
C518       C519 0.032       .   A
C518       C521 0.032       .   A
C519       C520 0.032       .   A
C519       H525 0.026       .   A
C520      Cl524 0.041       .   A
C521       C526 0.031       .   A
C521       H529 0.026       .   A
C526       C527 0.036       .   A
C526       H528 0.026       .   A
C527       C530 0.036       .   A
C527       N533 0.026       .   A
C527       H536 0.026       .   A
C530       N531 0.035       .   A
C530       H534 0.026       .   A
C530       H535 0.026       .   A
N531       N532 0.026       .   A
N532       N533 0.032       .   A
C493       C494 0.032       .   A
C493       C498 0.032       .   A
C494       C495 0.031       .   A
C494       F501 0.032       .   A
C495       C496 0.032       .   A
C495       H500 0.026       .   A
C496       C497 0.032       .   A
C496       C499 0.032       .   A
C497       C498 0.032       .   A
C497       H503 0.026       .   A
C498      Cl502 0.041       .   A
C499       C504 0.031       .   A
C499       H507 0.026       .   A
C504       C505 0.036       .   A
C504       H506 0.026       .   A
C505       C508 0.036       .   A
C505       N511 0.026       .   A
C505       H514 0.026       .   A
C508       N509 0.035       .   A
C508       H512 0.026       .   A
C508       H513 0.026       .   A
N509       N510 0.026       .   A
N510       N511 0.032       .   A
C471       C472 0.032       .   A
C471       C476 0.032       .   A
C472       C473 0.031       .   A
C472       F479 0.032       .   A
C473       C474 0.032       .   A
C473       H478 0.026       .   A
C474       C475 0.032       .   A
C474       C477 0.032       .   A
C475       C476 0.032       .   A
C475       H481 0.026       .   A
C476      Cl480 0.041       .   A
C477       C482 0.031       .   A
C477       H485 0.026       .   A
C482       C483 0.036       .   A
C482       H484 0.026       .   A
C483       C486 0.036       .   A
C483       N489 0.026       .   A
C483       H492 0.026       .   A
C486       N487 0.035       .   A
C486       H490 0.026       .   A
C486       H491 0.026       .   A
N487       N488 0.026       .   A
N488       N489 0.032       .   A
C449       C450 0.032       .   A
C449       C454 0.032       .   A
C450       C451 0.031       .   A
C450       F457 0.032       .   A
C451       C452 0.032       .   A
C451       H456 0.026       .   A
C452       C453 0.032       .   A
C452       C455 0.032       .   A
C453       C454 0.032       .   A
C453       H459 0.026       .   A
C454      Cl458 0.041       .   A
C455       C460 0.031       .   A
C455       H463 0.026       .   A
C460       C461 0.036       .   A
C460       H462 0.026       .   A
C461       C464 0.036       .   A
C461       N467 0.026       .   A
C461       H470 0.026       .   A
C464       N465 0.035       .   A
C464       H468 0.026       .   A
C464       H469 0.026       .   A
N465       N466 0.026       .   A
N466       N467 0.032       .   A
C427       C428 0.032       .   A
C427       C432 0.032       .   A
C428       C429 0.031       .   A
C428       F435 0.032       .   A
C429       C430 0.032       .   A
C429       H434 0.026       .   A
C430       C431 0.032       .   A
C430       C433 0.032       .   A
C431       C432 0.032       .   A
C431       H437 0.026       .   A
C432      Cl436 0.041       .   A
C433       C438 0.031       .   A
C433       H441 0.026       .   A
C438       C439 0.036       .   A
C438       H440 0.026       .   A
C439       C442 0.036       .   A
C439       N445 0.026       .   A
C439       H448 0.026       .   A
C442       N443 0.035       .   A
C442       H446 0.026       .   A
C442       H447 0.026       .   A
N443       N444 0.026       .   A
N444       N445 0.032       .   A
C405       C406 0.032       .   A
C405       C410 0.032       .   A
C406       C407 0.031       .   A
C406       F413 0.032       .   A
C407       C408 0.032       .   A
C407       H412 0.026       .   A
C408       C409 0.032       .   A
C408       C411 0.032       .   A
C409       C410 0.032       .   A
C409       H415 0.026       .   A
C410      Cl414 0.041       .   A
C411       C416 0.031       .   A
C411       H419 0.026       .   A
C416       C417 0.036       .   A
C416       H418 0.026       .   A
C417       C420 0.036       .   A
C417       N423 0.026       .   A
C417       H426 0.026       .   A
C420       N421 0.035       .   A
C420       H424 0.026       .   A
C420       H425 0.026       .   A
N421       N422 0.026       .   A
N422       N423 0.032       .   A
C383       C384 0.032       .   A
C383       C388 0.032       .   A
C384       C385 0.031       .   A
C384       F391 0.032       .   A
C385       C386 0.032       .   A
C385       H390 0.026       .   A
C386       C387 0.032       .   A
C386       C389 0.032       .   A
C387       C388 0.032       .   A
C387       H393 0.026       .   A
C388      Cl392 0.041       .   A
C389       C394 0.031       .   A
C389       H397 0.026       .   A
C394       C395 0.036       .   A
C394       H396 0.026       .   A
C395       C398 0.036       .   A
C395       N401 0.026       .   A
C395       H404 0.026       .   A
C398       N399 0.035       .   A
C398       H402 0.026       .   A
C398       H403 0.026       .   A
N399       N400 0.026       .   A
N400       N401 0.032       .   A
C361       C362 0.032       .   A
C361       C366 0.032       .   A
C362       C363 0.031       .   A
C362       F369 0.032       .   A
C363       C364 0.032       .   A
C363       H368 0.026       .   A
C364       C365 0.032       .   A
C364       C367 0.032       .   A
C365       C366 0.032       .   A
C365       H371 0.026       .   A
C366      Cl370 0.041       .   A
C367       C372 0.031       .   A
C367       H375 0.026       .   A
C372       C373 0.036       .   A
C372       H374 0.026       .   A
C373       C376 0.036       .   A
C373       N379 0.026       .   A
C373       H382 0.026       .   A
C376       N377 0.035       .   A
C376       H380 0.026       .   A
C376       H381 0.026       .   A
N377       N378 0.026       .   A
N378       N379 0.032       .   A
C339       C340 0.032       .   A
C339       C344 0.032       .   A
C340       C341 0.031       .   A
C340       F347 0.032       .   A
C341       C342 0.032       .   A
C341       H346 0.026       .   A
C342       C343 0.032       .   A
C342       C345 0.032       .   A
C343       C344 0.032       .   A
C343       H349 0.026       .   A
C344      Cl348 0.041       .   A
C345       C350 0.031       .   A
C345       H353 0.026       .   A
C350       C351 0.036       .   A
C350       H352 0.026       .   A
C351       C354 0.036       .   A
C351       N357 0.026       .   A
C351       H360 0.026       .   A
C354       N355 0.035       .   A
C354       H358 0.026       .   A
C354       H359 0.026       .   A
N355       N356 0.026       .   A
N356       N357 0.032       .   A
C317       C318 0.032       .   A
C317       C322 0.032       .   A
C318       C319 0.031       .   A
C318       F325 0.032       .   A
C319       C320 0.032       .   A
C319       H324 0.026       .   A
C320       C321 0.032       .   A
C320       C323 0.032       .   A
C321       C322 0.032       .   A
C321       H327 0.026       .   A
C322      Cl326 0.041       .   A
C323       C328 0.031       .   A
C323       H331 0.026       .   A
C328       C329 0.036       .   A
C328       H330 0.026       .   A
C329       C332 0.036       .   A
C329       N335 0.026       .   A
C329       H338 0.026       .   A
C332       N333 0.035       .   A
C332       H336 0.026       .   A
C332       H337 0.026       .   A
N333       N334 0.026       .   A
N334       N335 0.032       .   A
C295       C296 0.032       .   A
C295       C300 0.032       .   A
C296       C297 0.031       .   A
C296       F303 0.032       .   A
C297       C298 0.032       .   A
C297       H302 0.026       .   A
C298       C299 0.032       .   A
C298       C301 0.032       .   A
C299       C300 0.032       .   A
C299       H305 0.026       .   A
C300      Cl304 0.041       .   A
C301       C306 0.031       .   A
C301       H309 0.026       .   A
C306       C307 0.036       .   A
C306       H308 0.026       .   A
C307       C310 0.036       .   A
C307       N313 0.026       .   A
C307       H316 0.026       .   A
C310       N311 0.035       .   A
C310       H314 0.026       .   A
C310       H315 0.026       .   A
N311       N312 0.026       .   A
N312       N313 0.032       .   A
C273       C274 0.032       .   A
C273       C278 0.032       .   A
C274       C275 0.031       .   A
C274       F281 0.032       .   A
C275       C276 0.032       .   A
C275       H280 0.026       .   A
C276       C277 0.032       .   A
C276       C279 0.032       .   A
C277       C278 0.032       .   A
C277       H283 0.026       .   A
C278      Cl282 0.041       .   A
C279       C284 0.031       .   A
C279       H287 0.026       .   A
C284       C285 0.036       .   A
C284       H286 0.026       .   A
C285       C288 0.036       .   A
C285       N291 0.026       .   A
C285       H294 0.026       .   A
C288       N289 0.035       .   A
C288       H292 0.026       .   A
C288       H293 0.026       .   A
N289       N290 0.026       .   A
N290       N291 0.032       .   A
C251       C252 0.032       .   A
C251       C256 0.032       .   A
C252       C253 0.031       .   A
C252       F259 0.032       .   A
C253       C254 0.032       .   A
C253       H258 0.026       .   A
C254       C255 0.032       .   A
C254       C257 0.032       .   A
C255       C256 0.032       .   A
C255       H261 0.026       .   A
C256      Cl260 0.041       .   A
C257       C262 0.031       .   A
C257       H265 0.026       .   A
C262       C263 0.036       .   A
C262       H264 0.026       .   A
C263       C266 0.036       .   A
C263       N269 0.026       .   A
C263       H272 0.026       .   A
C266       N267 0.035       .   A
C266       H270 0.026       .   A
C266       H271 0.026       .   A
N267       N268 0.026       .   A
N268       N269 0.032       .   A
C229       C230 0.032       .   A
C229       C234 0.032       .   A
C230       C231 0.031       .   A
C230       F237 0.032       .   A
C231       C232 0.032       .   A
C231       H236 0.026       .   A
C232       C233 0.032       .   A
C232       C235 0.032       .   A
C233       C234 0.032       .   A
C233       H239 0.026       .   A
C234      Cl238 0.041       .   A
C235       C240 0.031       .   A
C235       H243 0.026       .   A
C240       C241 0.036       .   A
C240       H242 0.026       .   A
C241       C244 0.036       .   A
C241       N247 0.026       .   A
C241       H250 0.026       .   A
C244       N245 0.035       .   A
C244       H248 0.026       .   A
C244       H249 0.026       .   A
N245       N246 0.026       .   A
N246       N247 0.032       .   A
C207       C208 0.032       .   A
C207       C212 0.032       .   A
C208       C209 0.031       .   A
C208       F215 0.032       .   A
C209       C210 0.032       .   A
C209       H214 0.026       .   A
C210       C211 0.032       .   A
C210       C213 0.032       .   A
C211       C212 0.032       .   A
C211       H217 0.026       .   A
C212      Cl216 0.041       .   A
C213       C218 0.031       .   A
C213       H221 0.026       .   A
C218       C219 0.036       .   A
C218       H220 0.026       .   A
C219       C222 0.036       .   A
C219       N225 0.026       .   A
C219       H228 0.026       .   A
C222       N223 0.035       .   A
C222       H226 0.026       .   A
C222       H227 0.026       .   A
N223       N224 0.026       .   A
N224       N225 0.032       .   A
C185       C186 0.032       .   A
C185       C190 0.032       .   A
C186       C187 0.031       .   A
C186       F193 0.032       .   A
C187       C188 0.032       .   A
C187       H192 0.026       .   A
C188       C189 0.032       .   A
C188       C191 0.032       .   A
C189       C190 0.032       .   A
C189       H195 0.026       .   A
C190      Cl194 0.041       .   A
C191       C196 0.031       .   A
C191       H199 0.026       .   A
C196       C197 0.036       .   A
C196       H198 0.026       .   A
C197       C200 0.036       .   A
C197       N203 0.026       .   A
C197       H206 0.026       .   A
C200       N201 0.035       .   A
C200       H204 0.026       .   A
C200       H205 0.026       .   A
N201       N202 0.026       .   A
N202       N203 0.032       .   A
