data_pcu_v1-6c_Zn_1_Ch_1-58_fer_tobacco
_audit_creation_date              2021-04-07
_audit_creation_method            'tobacco_3.0'
_symmetry_space_group_name_H-M    'P1'
_symmetry_Int_Tables_number       1
_symmetry_cell_setting            triclinic
loop_
_symmetry_equiv_pos_as_xyz
  x,y,z
_cell_length_a                    48.675842143284655
_cell_length_b                    48.675842143284655
_cell_length_c                    48.675842143284655
_cell_angle_alpha                 90.0
_cell_angle_beta                  90.0
_cell_angle_gamma                 90.0
loop_
_atom_site_label
_atom_site_type_symbol
_atom_site_fract_x
_atom_site_fract_y
_atom_site_fract_z
_atom_site_charge
Zn1       Zn   -0.0230340134    0.0230340134    0.0230340134          1.4972
Zn2       Zn    0.0230340134   -0.0230340134    0.0230340134          1.4936
Zn3       Zn   -0.0230340134   -0.0230340134   -0.0230340134          1.4911
Zn4       Zn    0.0230340134    0.0230340134   -0.0230340134          1.4948
O5         O    0.0000000000    0.0000000000    0.0000000000         -2.2739
O6         O   -0.0169283152    0.0169283152    0.0615623658         -1.1802
O7         O    0.0169283152   -0.0615623658    0.0169283152         -1.1784
O8         O   -0.0615623658   -0.0169283152   -0.0169283152         -1.1736
O9         O    0.0169283152   -0.0169283152    0.0615623658         -1.1804
O10        O   -0.0615623658    0.0169283152    0.0169283152         -1.1763
O11        O   -0.0169283152   -0.0615623658   -0.0169283152         -1.1822
O12        O    0.0169283152    0.0169283152   -0.0615623658         -1.1761
O13        O    0.0615623658   -0.0169283152    0.0169283152         -1.1837
O14        O   -0.0169283152   -0.0169283152   -0.0615623658         -1.1776
O15        O    0.0615623658    0.0169283152   -0.0169283152         -1.1822
O16        O    0.0169283152    0.0615623658   -0.0169283152         -1.1813
O17        O   -0.0169283152    0.0615623658    0.0169283152         -1.1792
C18        C   -0.0000000000   -0.0000000000    0.0736053007          0.3387
C19        C    0.0000000000   -0.0736053007   -0.0000000000          0.3436
C20        C   -0.0736053007    0.0000000000    0.0000000000          0.3332
C21        C    0.0000000000    0.0000000000   -0.0736053007          0.3369
C22        C    0.0736053007   -0.0000000000   -0.0000000000          0.3483
C23        C   -0.0000000000    0.0736053007    0.0000000000          0.3388
Zn24      Zn    0.9769659866    0.0230340134    0.4769659866          1.4972
Zn25      Zn    1.0230340134   -0.0230340134    0.4769659866          1.4936
Zn26      Zn    1.0230340134    0.0230340134    0.5230340134          1.4911
Zn27      Zn    0.9769659866   -0.0230340134    0.5230340134          1.4948
O28        O    1.0000000000    0.0000000000    0.5000000000         -2.2739
O29        O    0.9830716848    0.0169283152    0.4384376342         -1.1802
O30        O    1.0615623658   -0.0169283152    0.4830716848         -1.1784
O31        O    1.0169283152    0.0615623658    0.5169283152         -1.1736
O32        O    1.0169283152   -0.0169283152    0.4384376342         -1.1804
O33        O    0.9830716848    0.0615623658    0.4830716848         -1.1763
O34        O    1.0615623658    0.0169283152    0.5169283152         -1.1822
O35        O    0.9830716848   -0.0169283152    0.5615623658         -1.1761
O36        O    1.0169283152   -0.0615623658    0.4830716848         -1.1837
O37        O    1.0169283152    0.0169283152    0.5615623658         -1.1776
O38        O    0.9830716848   -0.0615623658    0.5169283152         -1.1822
O39        O    0.9384376342   -0.0169283152    0.5169283152         -1.1813
O40        O    0.9384376342    0.0169283152    0.4830716848         -1.1792
C41        C    1.0000000000    0.0000000000    0.4263946993          0.3387
C42        C    1.0736053007    0.0000000000    0.5000000000          0.3436
C43        C    1.0000000000    0.0736053007    0.5000000000          0.3332
C44        C    1.0000000000    0.0000000000    0.5736053007          0.3369
C45        C    1.0000000000   -0.0736053007    0.5000000000          0.3483
C46        C    0.9263946993    0.0000000000    0.5000000000          0.3388
Zn47      Zn    1.0230340134    0.4769659866   -0.0230340134          1.4972
Zn48      Zn    0.9769659866    0.4769659866    0.0230340134          1.4936
Zn49      Zn    1.0230340134    0.5230340134    0.0230340134          1.4911
Zn50      Zn    0.9769659866    0.5230340134   -0.0230340134          1.4948
O51        O    1.0000000000    0.5000000000    0.0000000000         -2.2739
O52        O    1.0169283152    0.4384376342   -0.0169283152         -1.1802
O53        O    0.9830716848    0.4830716848    0.0615623658         -1.1784
O54        O    1.0615623658    0.5169283152    0.0169283152         -1.1736
O55        O    0.9830716848    0.4384376342    0.0169283152         -1.1804
O56        O    1.0615623658    0.4830716848   -0.0169283152         -1.1763
O57        O    1.0169283152    0.5169283152    0.0615623658         -1.1822
O58        O    0.9830716848    0.5615623658   -0.0169283152         -1.1761
O59        O    0.9384376342    0.4830716848    0.0169283152         -1.1837
O60        O    1.0169283152    0.5615623658    0.0169283152         -1.1776
O61        O    0.9384376342    0.5169283152   -0.0169283152         -1.1822
O62        O    0.9830716848    0.5169283152   -0.0615623658         -1.1813
O63        O    1.0169283152    0.4830716848   -0.0615623658         -1.1792
C64        C    1.0000000000    0.4263946993    0.0000000000          0.3387
C65        C    1.0000000000    0.5000000000    0.0736053007          0.3436
C66        C    1.0736053007    0.5000000000    0.0000000000          0.3332
C67        C    1.0000000000    0.5736053007    0.0000000000          0.3369
C68        C    0.9263946993    0.5000000000    0.0000000000          0.3483
C69        C    1.0000000000    0.5000000000   -0.0736053007          0.3388
Zn70      Zn    0.9769659866    0.4769659866    0.5230340134          1.4972
Zn71      Zn    1.0230340134    0.4769659866    0.4769659866          1.4936
Zn72      Zn    0.9769659866    0.5230340134    0.4769659866          1.4911
Zn73      Zn    1.0230340134    0.5230340134    0.5230340134          1.4948
O74        O    1.0000000000    0.5000000000    0.5000000000         -2.2739
O75        O    0.9830716848    0.4384376342    0.5169283152         -1.1802
O76        O    1.0169283152    0.4830716848    0.4384376342         -1.1784
O77        O    0.9384376342    0.5169283152    0.4830716848         -1.1736
O78        O    1.0169283152    0.4384376342    0.4830716848         -1.1804
O79        O    0.9384376342    0.4830716848    0.5169283152         -1.1763
O80        O    0.9830716848    0.5169283152    0.4384376342         -1.1822
O81        O    1.0169283152    0.5615623658    0.5169283152         -1.1761
O82        O    1.0615623658    0.4830716848    0.4830716848         -1.1837
O83        O    0.9830716848    0.5615623658    0.4830716848         -1.1776
O84        O    1.0615623658    0.5169283152    0.5169283152         -1.1822
O85        O    1.0169283152    0.5169283152    0.5615623658         -1.1813
O86        O    0.9830716848    0.4830716848    0.5615623658         -1.1792
C87        C    1.0000000000    0.4263946993    0.5000000000          0.3387
C88        C    1.0000000000    0.5000000000    0.4263946993          0.3436
C89        C    0.9263946993    0.5000000000    0.5000000000          0.3332
C90        C    1.0000000000    0.5736053007    0.5000000000          0.3369
C91        C    1.0736053007    0.5000000000    0.5000000000          0.3483
C92        C    1.0000000000    0.5000000000    0.5736053007          0.3388
Zn93      Zn    0.4769659866    0.9769659866   -0.0230340134          1.4972
Zn94      Zn    0.4769659866    1.0230340134    0.0230340134          1.4936
Zn95      Zn    0.5230340134    0.9769659866    0.0230340134          1.4911
Zn96      Zn    0.5230340134    1.0230340134   -0.0230340134          1.4948
O97        O    0.5000000000    1.0000000000    0.0000000000         -2.2739
O98        O    0.4384376342    0.9830716848   -0.0169283152         -1.1802
O99        O    0.4830716848    1.0169283152    0.0615623658         -1.1784
O100       O    0.5169283152    0.9384376342    0.0169283152         -1.1736
O101       O    0.4384376342    1.0169283152    0.0169283152         -1.1804
O102       O    0.4830716848    0.9384376342   -0.0169283152         -1.1763
O103       O    0.5169283152    0.9830716848    0.0615623658         -1.1822
O104       O    0.5615623658    1.0169283152   -0.0169283152         -1.1761
O105       O    0.4830716848    1.0615623658    0.0169283152         -1.1837
O106       O    0.5615623658    0.9830716848    0.0169283152         -1.1776
O107       O    0.5169283152    1.0615623658   -0.0169283152         -1.1822
O108       O    0.5169283152    1.0169283152   -0.0615623658         -1.1813
O109       O    0.4830716848    0.9830716848   -0.0615623658         -1.1792
C110       C    0.4263946993    1.0000000000    0.0000000000          0.3387
C111       C    0.5000000000    1.0000000000    0.0736053007          0.3436
C112       C    0.5000000000    0.9263946993    0.0000000000          0.3332
C113       C    0.5736053007    1.0000000000    0.0000000000          0.3369
C114       C    0.5000000000    1.0736053007    0.0000000000          0.3483
C115       C    0.5000000000    1.0000000000   -0.0736053007          0.3388
Zn116     Zn    0.5230340134    0.9769659866    0.5230340134          1.4972
Zn117     Zn    0.4769659866    0.9769659866    0.4769659866          1.4936
Zn118     Zn    0.4769659866    1.0230340134    0.5230340134          1.4911
Zn119     Zn    0.5230340134    1.0230340134    0.4769659866          1.4948
O120       O    0.5000000000    1.0000000000    0.5000000000         -2.2739
O121       O    0.5169283152    0.9384376342    0.5169283152         -1.1802
O122       O    0.4384376342    0.9830716848    0.4830716848         -1.1784
O123       O    0.4830716848    1.0169283152    0.5615623658         -1.1736
O124       O    0.4830716848    0.9384376342    0.4830716848         -1.1804
O125       O    0.5169283152    0.9830716848    0.5615623658         -1.1763
O126       O    0.4384376342    1.0169283152    0.5169283152         -1.1822
O127       O    0.5169283152    1.0615623658    0.4830716848         -1.1761
O128       O    0.4830716848    0.9830716848    0.4384376342         -1.1837
O129       O    0.4830716848    1.0615623658    0.5169283152         -1.1776
O130       O    0.5169283152    1.0169283152    0.4384376342         -1.1822
O131       O    0.5615623658    1.0169283152    0.4830716848         -1.1813
O132       O    0.5615623658    0.9830716848    0.5169283152         -1.1792
C133       C    0.5000000000    0.9263946993    0.5000000000          0.3387
C134       C    0.4263946993    1.0000000000    0.5000000000          0.3436
C135       C    0.5000000000    1.0000000000    0.5736053007          0.3332
C136       C    0.5000000000    1.0736053007    0.5000000000          0.3369
C137       C    0.5000000000    1.0000000000    0.4263946993          0.3483
C138       C    0.5736053007    1.0000000000    0.5000000000          0.3388
Zn139     Zn    0.4769659866    0.5230340134   -0.0230340134          1.4972
Zn140     Zn    0.4769659866    0.4769659866    0.0230340134          1.4936
Zn141     Zn    0.5230340134    0.4769659866   -0.0230340134          1.4911
Zn142     Zn    0.5230340134    0.5230340134    0.0230340134          1.4988
O143       O    0.5000000000    0.5000000000    0.0000000000         -2.2739
O144       O    0.4384376342    0.5169283152   -0.0169283152         -1.1802
O145       O    0.4830716848    0.4384376342    0.0169283152         -1.1784
O146       O    0.5169283152    0.4830716848   -0.0615623658         -1.1736
O147       O    0.4384376342    0.4830716848    0.0169283152         -1.1804
O148       O    0.4830716848    0.5169283152   -0.0615623658         -1.1763
O149       O    0.5169283152    0.4384376342   -0.0169283152         -1.1822
O150       O    0.5615623658    0.5169283152    0.0169283152         -1.1761
O151       O    0.4830716848    0.4830716848    0.0615623658         -1.1837
O152       O    0.5615623658    0.4830716848   -0.0169283152         -1.1776
O153       O    0.5169283152    0.5169283152    0.0615623658         -1.1822
O154       O    0.5169283152    0.5615623658    0.0169283152         -1.1813
O155       O    0.4830716848    0.5615623658   -0.0169283152         -1.1792
C156       C    0.4263946993    0.5000000000    0.0000000000          0.3387
C157       C    0.5000000000    0.4263946993    0.0000000000          0.3436
C158       C    0.5000000000    0.5000000000   -0.0736053007          0.3332
C159       C    0.5736053007    0.5000000000    0.0000000000          0.3369
C160       C    0.5000000000    0.5000000000    0.0736053007          0.3483
C161       C    0.5000000000    0.5736053007    0.0000000000          0.3388
Zn162     Zn    0.5230340134    0.4769659866    0.4769659866          1.4972
Zn163     Zn    0.4769659866    0.5230340134    0.4769659866          1.4936
Zn164     Zn    0.4769659866    0.4769659866    0.5230340134          1.4911
Zn165     Zn    0.5230340134    0.5230340134    0.5230340134          1.4948
O166       O    0.5000000000    0.5000000000    0.5000000000         -2.2739
O167       O    0.5169283152    0.4830716848    0.4384376342         -1.1802
O168       O    0.4384376342    0.5169283152    0.4830716848         -1.1784
O169       O    0.4830716848    0.4384376342    0.5169283152         -1.1736
O170       O    0.4830716848    0.5169283152    0.4384376342         -1.1804
O171       O    0.5169283152    0.4384376342    0.4830716848         -1.1763
O172       O    0.4384376342    0.4830716848    0.5169283152         -1.1822
O173       O    0.5169283152    0.5169283152    0.5615623658         -1.1761
O174       O    0.4830716848    0.5615623658    0.4830716848         -1.1837
O175       O    0.4830716848    0.4830716848    0.5615623658         -1.1776
O176       O    0.5169283152    0.5615623658    0.5169283152         -1.1822
O177       O    0.5615623658    0.5169283152    0.5169283152         -1.1813
O178       O    0.5615623658    0.4830716848    0.4830716848         -1.1792
C179       C    0.5000000000    0.5000000000    0.4263946993          0.3387
C180       C    0.4263946993    0.5000000000    0.5000000000          0.3436
C181       C    0.5000000000    0.4263946993    0.5000000000          0.3332
C182       C    0.5000000000    0.5000000000    0.5736053007          0.3369
C183       C    0.5000000000    0.5736053007    0.5000000000          0.3483
C184       C    0.5736053007    0.5000000000    0.5000000000          0.3388
C829       C    0.5000000000    0.5000000000   -0.3947568286         -0.4356
C830       C    0.4777254760    0.4993244562   -0.3783720592         -0.4355
C831       C    0.4795455967    0.4987703926   -0.3509256254         -0.4354
C832       C    0.5049104494    0.4988791652   -0.3384648655         -0.4355
C833       C    0.5276462721    0.4996145278   -0.3554856363         -0.4356
C834       C    0.5246247536    0.5001922834   -0.3827490142          0.5643
C835       C    0.5117878420    0.4986480808   -0.3108993712          0.5643
H836       H    0.4608677864    0.4982155157   -0.3386324770         -0.4354
H837       H    0.4572193514    0.4991803672   -0.3872176312         -0.4354
H838       H    0.5430502092    0.5007912473   -0.3953503753          0.5642
H839       H    0.5483975994    0.4998328702   -0.3471537490          0.5643
C840       C    0.4972281998    0.4978986830   -0.2873031656         -0.4356
C841       C    0.5107970268    0.4980018268   -0.2602906383           0.564
H842       H    0.4748348071    0.4972720937   -0.2871968804         -0.4353
H843       H    0.5337210341    0.4992314533   -0.3068856938           0.564
C844       C    0.4990140633    0.4975236104   -0.2352515168          0.5639
C845       C    0.5114604722    0.4977791505   -0.2083068322          0.5634
H846       H    0.4766521123    0.4968946512   -0.2340136599          0.5642
H847       H    0.5331374963    0.4986365487   -0.2607841361          0.5637
C848       C    0.5050985460    0.4959380865   -0.1839950102         -0.4355
C849       C    0.4946419512    0.4932100649   -0.1555205997         -0.4338
C850       C    0.5152230693    0.4958504854   -0.1312938203          0.5638
N851       N    0.5000000000    0.5000000000   -0.1052431714          0.5598
N852       N    0.4821023054    0.5076058611   -0.1169481762          0.5535
N853       N    0.4771546388    0.4960471010   -0.1415120394          0.5634
H854       H    0.5280842287    0.4774533541   -0.1297607564         -0.4209
H855       H    0.5289184351    0.5134366996   -0.1346498664          0.5494
H856       H    0.4833687237    0.4738395514   -0.1540505340         -0.4179
C801       C    0.5000000000    0.5000000000    0.3947568286         -0.4356
C802       C    0.5222814394    0.4996149885    0.3783720592         -0.4355
C803       C    0.5204686989    0.4990372364    0.3509256254         -0.4354
C804       C    0.4951045846    0.4988152249    0.3384648655         -0.4355
C805       C    0.4723611056    0.4992540345    0.3554856363         -0.4356
C806       C    0.4753748328    0.4998711436    0.3827490142          0.5643
C807       C    0.4882307903    0.4984944743    0.3108993712          0.5643
H808       H    0.5391521569    0.4987259780    0.3386324770         -0.4354
H809       H    0.5427876994    0.4997383255    0.3872176312         -0.4354
H810       H    0.4569431331    0.5002297762    0.3953503753          0.5642
H811       H    0.4516086955    0.4992017470    0.3471537490          0.5643
C812       C    0.5027989670    0.4979350078    0.2873031656         -0.4356
C813       C    0.4892299488    0.4978611962    0.2602906383           0.564
H814       H    0.5251986268    0.4976004968    0.2871968804         -0.4353
H815       H    0.4662918557    0.4987917735    0.3068856938           0.564
C816       C    0.5010181466    0.4975366783    0.2352515168          0.5639
C817       C    0.4885694637    0.4976298870    0.2083068322          0.5634
H818       H    0.5233863982    0.4971993875    0.2340136599          0.5642
H819       H    0.4668831018    0.4982045293    0.2607841361          0.5637
C820       C    0.4949548576    0.4958719434    0.1839950102         -0.4355
C821       C    0.5054461386    0.4932805149    0.1555205997         -0.4338
C822       C    0.4848323376    0.4956523191    0.1312938203          0.5638
N823       N    0.5000000000    0.5000000000    0.1052431714          0.5598
N824       N    0.5177969871    0.5078386124    0.1169481762          0.5535
N825       N    0.5228949670    0.4963453561    0.1415120394          0.5634
H826       H    0.4722121829    0.4770890340    0.1297607564         -0.4209
H827       H    0.4709088003    0.5130584411    0.1346498664          0.5494
H828       H    0.5169710120    0.4740586590    0.1540505340         -0.4179
C773       C    0.5000000000    0.6052431714    0.5000000000         -0.4356
C774       C    0.5109565109    0.6216279408    0.4805947006         -0.4355
C775       C    0.5095400048    0.6490743746    0.4818648723         -0.4354
C776       C    0.4964983642    0.6615351345    0.5036204048         -0.4355
C777       C    0.4853541528    0.6445143637    0.5234513136         -0.4356
C778       C    0.4874130474    0.6172509858    0.5211656346          0.5643
C779       C    0.4927393520    0.6891006288    0.5093842365          0.5643
H780       H    0.5187372563    0.6613675230    0.4655989862         -0.4354
H781       H    0.5214519414    0.6127823688    0.4629774407         -0.4354
H782       H    0.4783841886    0.6046496247    0.5372384651          0.5642
H783       H    0.4747952714    0.6528462510    0.5413167909          0.5643
C784       C    0.4996376811    0.7126968344    0.4965406454         -0.4356
C785       C    0.4926995668    0.7397093617    0.5082019607           0.564
H786       H    0.5106976257    0.7128031196    0.4770590058         -0.4353
H787       H    0.4818807421    0.6931143062    0.5284498031           0.564
C788       C    0.4983920382    0.7647484832    0.4978741977          0.5639
C789       C    0.4921655186    0.7916931678    0.5086542185          0.5634
H790       H    0.5094336738    0.7659863401    0.4784182288          0.5642
H791       H    0.4816739848    0.7392158639    0.5276425365          0.5637
C792       C    0.4938849185    0.8160049898    0.5022583382         -0.4355
C793       C    0.4969658852    0.8444794003    0.4919002436         -0.4338
C794       C    0.4885671905    0.8687061797    0.5108743358          0.5638
N795       N    0.5000000000    0.8947568286    0.5000000000          0.5598
N796       N    0.5157746585    0.8830518238    0.4886273686          0.5535
N797       N    0.5084483853    0.8584879606    0.4784092445          0.5634
H798       H    0.4661688525    0.8702392436    0.5123502471         -0.4209
H799       H    0.4965200245    0.8653501336    0.5316971695          0.5494
H800       H    0.4862323560    0.8459494660    0.4722255441         -0.4179
C745       C    0.5000000000    1.1052431714    0.5000000000         -0.4356
C746       C    0.4826877017    1.1216279408    0.5140319316         -0.4355
C747       C    0.4844714513    1.1490743746    0.5133700681         -0.4354
C748       C    0.5045857723    1.1615351345    0.4979168590         -0.4355
C749       C    0.5222288390    1.1445143637    0.4835578693         -0.4356
C750       C    0.5194749069    1.1172509858    0.4849287206          0.5643
C751       C    0.5101974068    1.1891006288    0.4939342107          0.5643
H752       H    0.4699475870    1.1613675230    0.5251270172         -0.4354
H753       H    0.4664603690    1.1127823688    0.5265696979         -0.4354
H754       H    0.5337712894    1.1046496247    0.4732895789          0.5642
H755       H    0.5386062698    1.1528462510    0.4708124772          0.5643
C756       C    0.4990677932    1.2126968344    0.5033510296         -0.4356
C757       C    0.5098006335    1.2397093617    0.4950486298           0.564
H758       H    0.4816312653    1.2128031196    0.5174160269         -0.4353
H759       H    0.5272939819    1.1931143062    0.4801823979           0.564
C760       C    0.5007158506    1.2647484832    0.5025675152          0.5639
C761       C    0.5104633721    1.2916931678    0.4948238585          0.5634
H762       H    0.4833057734    1.2659863401    0.5166153498          0.5642
H763       H    0.5271901288    1.2392158639    0.4810092246          0.5637
C764       C    0.5065172014    1.3160049898    0.5001428207         -0.4355
C765       C    0.4998506633    1.3444794003    0.5086480983         -0.4338
C766       C    0.5146253198    1.3687061797    0.4940788235          0.5638
N767       N    0.5000000000    1.3947568286    0.5000000000          0.5598
N768       N    0.4811528123    1.3830518238    0.5047916710          0.5535
N769       N    0.4842190497    1.3584879606    0.5169852155          0.5634
H770       H    0.5360030764    1.3702392436    0.5009239227         -0.4209
H771       H    0.5148671474    1.3653501336    0.4717902728          0.5494
H772       H    0.5026168570    1.3459494660    0.5308888407         -0.4179
C717       C    0.5000000000    0.6052431714    0.0000000000         -0.4356
C718       C    0.4999346314    0.6216279408    0.0222846697         -0.4355
C719       C    0.5005489005    0.6490743746    0.0204839756         -0.4354
C720       C    0.5012834680    0.6615351345   -0.0048704717         -0.4355
C721       C    0.5013043872    0.6445143637   -0.0276181738         -0.4356
C722       C    0.5006264975    0.6172509858   -0.0246175336          0.5643
C723       C    0.5017430705    0.6891006288   -0.0117363798          0.5643
H724       H    0.5004825081    0.6613675230    0.0391699082         -0.4354
H725       H    0.4993968940    0.6127823688    0.0427842489         -0.4354
H726       H    0.5006404376    0.6046496247   -0.0430527168          0.5642
H727       H    0.5017760643    0.6528462510   -0.0483652887          0.5643
C728       C    0.5020080041    0.7126968344    0.0028401283         -0.4356
C729       C    0.5023560266    0.7397093617   -0.0107246270           0.564
H730       H    0.5018897562    0.7128031196    0.0252419736         -0.4353
H731       H    0.5018892115    0.6931143062   -0.0336768419           0.564
C732       C    0.5024422422    0.7647484832    0.0010677217          0.5639
C733       C    0.5026006368    0.7916931678   -0.0113803025          0.5634
H734       H    0.5023274082    0.7659863401    0.0234382214          0.5642
H735       H    0.5024643869    0.7392158639   -0.0330738485          0.5637
C736       C    0.5042291743    0.8160049898   -0.0049606851         -0.4355
C737       C    0.5066080479    0.8444794003    0.0055808251         -0.4338
C738       C    0.5046533270    0.8687061797   -0.0150766992          0.5638
N739       N    0.5000000000    0.8947568286    0.0000000000          0.5598
N740       N    0.4918033166    0.8830518238    0.0176349362          0.5535
N741       N    0.5031911968    0.8584879606    0.0229641503          0.5634
H742       H    0.5234678705    0.8702392436   -0.0273191178         -0.4209
H743       H    0.4875321507    0.8653501336   -0.0293491655          0.5494
H744       H    0.5255930636    0.8459494660    0.0174918129         -0.4179
C689       C    0.5000000000    1.1052431714    0.0000000000         -0.4356
C690       C    0.5202556392    1.1216279408   -0.0092908481         -0.4355
C691       C    0.5183633809    1.1490743746   -0.0090928978         -0.4354
C692       C    0.4950404652    1.1615351345    0.0008785207         -0.4355
C693       C    0.4743831729    1.1445143637    0.0104039951         -0.4356
C694       C    0.4773913385    1.1172509858    0.0097603220          0.5643
C695       C    0.4886153122    1.1891006288    0.0033421234          0.5643
H696       H    0.5353528086    1.1613675230   -0.0168728612         -0.4354
H697       H    0.5390891144    1.1127823688   -0.0174039312         -0.4354
H698       H    0.4606515286    1.1046496247    0.0174826882          0.5642
H699       H    0.4553527223    1.1528462510    0.0186809034          0.5643
C700       C    0.5017355208    1.2126968344   -0.0030143617         -0.4356
C701       C    0.4892765155    1.2397093617    0.0023612212           0.564
H702       H    0.5221197096    1.2128031196   -0.0123063746         -0.4353
H703       H    0.4686382262    1.1931143062    0.0124152304           0.564
C704       C    0.4999444769    1.2647484832   -0.0026648628          0.5639
C705       C    0.4885787132    1.2916931678    0.0024142918          0.5634
H706       H    0.5202987802    1.2659863401   -0.0119468227          0.5642
H707       H    0.4689442430    1.2392158639    0.0116401294          0.5637
C708       C    0.4937226196    1.3160049898   -0.0017575003         -0.4355
C709       C    0.5022932199    1.3444794003   -0.0083398470         -0.4338
C710       C    0.4843621585    1.3687061797    0.0021019577          0.5638
N711       N    0.5000000000    1.3947568286    0.0000000000          0.5598
N712       N    0.5194467198    1.3830518238    0.0000410302          0.5535
N713       N    0.5195060293    1.3584879606   -0.0125319894          0.5634
H714       H    0.4653552945    1.3702392436   -0.0098396912         -0.4209
H715       H    0.4785904635    1.3653501336    0.0236316002          0.5494
H716       H    0.5051393284    1.3459494660   -0.0305705042         -0.4179
C661       C    0.5000000000    1.0000000000   -0.3947568286         -0.4356
C662       C    0.4777166762    0.9997465053   -0.3783720592         -0.4355
C663       C    0.4795259752    0.9991580640   -0.3509256254         -0.4354
C664       C    0.5048883374    0.9987863517   -0.3384648655         -0.4355
C665       C    0.5276340101    0.9990909165   -0.3554856363         -0.4356
C666       C    0.5246239777    0.9997258026   -0.3827490142          0.5643
C667       C    0.5117601188    0.9984250360   -0.3108993712          0.5643
H668       H    0.4608410055    0.9989570850   -0.3386324770         -0.4354
H669       H    0.4572115015    0.9999908727   -0.3872176312         -0.4354
H670       H    0.5430574731    0.9999756409   -0.3953503753          0.5642
H671       H    0.5483857501    0.9989161445   -0.3471537490          0.5643
C672       C    0.4971888937    0.9979515639   -0.2873031656         -0.4356
C673       C    0.5107572399    0.9977976662   -0.2602906383           0.564
H674       H    0.4747876497    0.9977492666   -0.2871968804         -0.4353
H675       H    0.5337004259    0.9985928415   -0.3068856938           0.564
C676       C    0.4989673320    0.9975427305   -0.2352515168          0.5639
C677       C    0.5114163483    0.9975624627   -0.2083068322          0.5634
H678       H    0.4765974793    0.9973374680   -0.2340136599          0.5642
H679       H    0.5331057240    0.9980090972   -0.2607841361          0.5637
C680       C    0.5050206898    0.9958422378   -0.1839950102         -0.4355
C681       C    0.4945142964    0.9933127763   -0.1555205997         -0.4338
C682       C    0.5151417372    0.9955628719   -0.1312938203          0.5638
N683       N    0.5000000000    1.0000000000   -0.1052431714          0.5598
N684       N    0.4822495881    1.0079435177   -0.1169481762          0.5535
N685       N    0.4770838612    0.9964805510   -0.1415120394          0.5634
H686       H    0.5276521074    0.9769254231   -0.1297607564         -0.4209
H687       H    0.5291677668    1.0128865108   -0.1346498664          0.5494
H688       H    0.4828761720    0.9741592776   -0.1540505340         -0.4179
C633       C    0.5000000000    1.0000000000    0.1052431714         -0.4356
C634       C    0.5222814394    1.0003850115    0.1216279408         -0.4355
C635       C    0.5204686989    1.0009627636    0.1490743746         -0.4354
C636       C    0.4951045846    1.0011847751    0.1615351345         -0.4355
C637       C    0.4723611056    1.0007459655    0.1445143637         -0.4356
C638       C    0.4753748328    1.0001288564    0.1172509858          0.5643
C639       C    0.4882307903    1.0015055257    0.1891006288          0.5643
H640       H    0.5391521569    1.0012740220    0.1613675230         -0.4354
H641       H    0.5427876994    1.0002616745    0.1127823688         -0.4354
H642       H    0.4569431331    0.9997702238    0.1046496247          0.5642
H643       H    0.4516086955    1.0007982530    0.1528462510          0.5643
C644       C    0.5027989670    1.0020649922    0.2126968344         -0.4356
C645       C    0.4892299488    1.0021388038    0.2397093617           0.564
H646       H    0.5251986268    1.0023995032    0.2128031196         -0.4353
H647       H    0.4662918557    1.0012082265    0.1931143062           0.564
C648       C    0.5010181466    1.0024633217    0.2647484832          0.5639
C649       C    0.4885694637    1.0023701130    0.2916931678          0.5634
H650       H    0.5233863982    1.0028006125    0.2659863401          0.5642
H651       H    0.4668831018    1.0017954707    0.2392158639          0.5637
C652       C    0.4949548576    1.0041280566    0.3160049898         -0.4355
C653       C    0.5054461386    1.0067194851    0.3444794003         -0.4338
C654       C    0.4848323376    1.0043476809    0.3687061797          0.5638
N655       N    0.5000000000    1.0000000000    0.3947568286          0.5598
N656       N    0.5177969871    0.9921613876    0.3830518238          0.5535
N657       N    0.5228949670    1.0036546439    0.3584879606          0.5634
H658       H    0.4722121829    1.0229109660    0.3702392436         -0.4209
H659       H    0.4709088003    0.9869415589    0.3653501336          0.5494
H660       H    0.5169710120    1.0259413410    0.3459494660         -0.4179
C605       C    0.6052431714    0.5000000000    0.5000000000         -0.4356
C606       C    0.6216279408    0.5222842400    0.5001530509         -0.4355
C607       C    0.6490743746    0.5204776118    0.5007496415         -0.4354
C608       C    0.6615351345    0.4951171828    0.5012356700         -0.4355
C609       C    0.6445143637    0.4723703683    0.5010336335         -0.4356
C610       C    0.6172509858    0.4753775084    0.5003851863          0.5643
C611       C    0.6891006288    0.4882470998    0.5016279563          0.5643
H612       H    0.6613675230    0.5391632976    0.5008663967         -0.4354
H613       H    0.6127823688    0.5427881050    0.4998162596         -0.4354
H614       H    0.6046496247    0.4569430741    0.5002184388          0.5642
H615       H    0.6528462510    0.4516196269    0.5013019415          0.5643
C616       C    0.7126968344    0.5028203110    0.5020357443         -0.4356
C617       C    0.7397093617    0.4892527963    0.5022507993           0.564
H618       H    0.7128031196    0.5252222393    0.5021370668         -0.4353
H619       H    0.6931143062    0.4663062591    0.5015590476           0.564
C620       C    0.7647484832    0.5010437335    0.5024525898          0.5639
C621       C    0.7916931678    0.4885947548    0.5024889713          0.5634
H622       H    0.7659863401    0.5234142842    0.5025570189          0.5642
H623       H    0.7392158639    0.4669035862    0.5021401054          0.5637
C624       C    0.8160049898    0.4949981022    0.5041803506         -0.4355
C625       C    0.8444794003    0.5055157903    0.5066624292         -0.4338
C626       C    0.8687061797    0.4848784168    0.5045053339          0.5638
N627       N    0.8947568286    0.5000000000    0.5000000000          0.5598
N628       N    0.8830518238    0.5177144265    0.4919765537          0.5535
N629       N    0.8584879606    0.5229317698    0.5034161196          0.5634
H630       H    0.8702392436    0.4724521813    0.5231989833         -0.4209
H631       H    0.8653501336    0.4707744440    0.4872450927          0.5494
H632       H    0.8459494660    0.5172401302    0.5257632749         -0.4179
C577       C    1.1052431714    0.5000000000    0.5000000000         -0.4356
C578       C    1.1216279408    0.4777303164    0.4991802609         -0.4355
C579       C    1.1490743746    0.4795539861    0.4986379927         -0.4354
C580       C    1.1615351345    0.5049176030    0.4989109798         -0.4355
C581       C    1.1445143637    0.5276481883    0.4997935231         -0.4356
C582       C    1.1172509858    0.5246229926    0.5003517047          0.5643
C583       C    1.1891006288    0.5117963475    0.4987244259          0.5643
H584       H    1.1613675230    0.4608801596    0.4979622038         -0.4354
H585       H    1.1127823688    0.4572255545    0.4989034144         -0.4354
H586       H    1.1046496247    0.5430441843    0.5010699459          0.5642
H587       H    1.1528462510    0.5483976671    0.5001462089          0.5643
C588       C    1.2126968344    0.4972418623    0.4978807819         -0.4356
C589       C    1.2397093617    0.5108097371    0.4980717707           0.564
H590       H    1.2128031196    0.4748529954    0.4971092267         -0.4353
H591       H    1.1931143062    0.5337253031    0.4994497857           0.564
C592       C    1.2647484832    0.4990301166    0.4975172792          0.5639
C593       C    1.2916931678    0.5114746103    0.4978533943          0.5634
H594       H    1.2659863401    0.4766727063    0.4967435576          0.5642
H595       H    1.2392158639    0.5331456290    0.4988511157          0.5637
C596       C    1.3160049898    0.5051247367    0.4959711806         -0.4355
C597       C    1.3444794003    0.4946860228    0.4931755182         -0.4338
C598       C    1.3687061797    0.5152496150    0.4959491294          0.5638
N599       N    1.3947568286    0.5000000000    0.5000000000          0.5598
N600       N    1.3830518238    0.4820534387    0.5074898287          0.5535
N601       N    1.3584879606    0.4771807094    0.4958992787          0.5634
H602       H    1.3702392436    0.5282296114    0.4776356492         -0.4209
H603       H    1.3653501336    0.5288308373    0.5136236414          0.5494
H604       H    1.3459494660    0.4835384400    0.4737324256         -0.4179
C549       C    0.6052431714    0.5000000000    0.0000000000         -0.4356
C550       C    0.6216279408    0.5216313848    0.0053566753         -0.4355
C551       C    0.6490743746    0.5197353608    0.0055145335         -0.4354
C552       C    0.6615351345    0.4949636179    0.0000603300         -0.4355
C553       C    0.6445143637    0.4728939161   -0.0054520788         -0.4356
C554       C    0.6172509858    0.4759693268   -0.0053797960          0.5643
C555       C    0.6891006288    0.4881921008   -0.0011637962          0.5643
H556       H    0.6613675230    0.5378763236    0.0099949303         -0.4354
H557       H    0.6127823688    0.5416461729    0.0098209965         -0.4354
H558       H    0.6046496247    0.4580843412   -0.0098500828          0.5642
H559       H    0.6528462510    0.4526550926   -0.0100406823          0.5643
C560       C    0.7126968344    0.5022664553    0.0026384824         -0.4356
C561       C    0.7397093617    0.4890243885   -0.0003231678           0.564
H562       H    0.7128031196    0.5240243583    0.0079723658         -0.4353
H563       H    0.6931143062    0.4668749419   -0.0063584063           0.564
C564       C    0.7647484832    0.5004416567    0.0026285958          0.5639
C565       C    0.7916931678    0.4883289081   -0.0002453765          0.5634
H566       H    0.7659863401    0.5221683250    0.0079581667          0.5642
H567       H    0.7392158639    0.4673199339   -0.0056538426          0.5637
C568       C    0.8160049898    0.4941596583    0.0028956383         -0.4355
C569       C    0.8444794003    0.5038060287    0.0077669847         -0.4338
C570       C    0.8687061797    0.4842442544    0.0008466355          0.5638
N571       N    0.8947568286    0.5000000000    0.0000000000          0.5598
N572       N    0.8830518238    0.5190989773   -0.0036613741          0.5535
N573       N    0.8584879606    0.5214983990    0.0086807131          0.5634
H574       H    0.8702392436    0.4677933857    0.0161185961         -0.4209
H575       H    0.8653501336    0.4745645897   -0.0192317624          0.5494
H576       H    0.8459494660    0.5107418041    0.0290788938         -0.4179
C521       C    1.3947568286    0.5000000000    0.0000000000         -0.4356
C522       C    1.3783720592    0.5112358070   -0.0192449323         -0.4355
C523       C    1.3509256254    0.5098010926   -0.0179953642         -0.4354
C524       C    1.3384648655    0.4964464088    0.0035694220         -0.4355
C525       C    1.3554856363    0.4850167701    0.0232372066         -0.4356
C526       C    1.3827490142    0.4871084817    0.0209815209          0.5643
C527       C    1.3108993712    0.4926044917    0.0092783275          0.5643
H528       H    1.3386324770    0.5192324539   -0.0341266353         -0.4354
H529       H    1.3872176312    0.5219847414   -0.0367086752         -0.4354
H530       H    1.3953503753    0.4778482855    0.0369221902          0.5642
H531       H    1.3471537490    0.4742008042    0.0409482241          0.5643
C532       C    1.2873031656    0.4996877126   -0.0034642295         -0.4356
C533       C    1.2602906383    0.4925817966    0.0080956002           0.564
H534       H    1.2871968804    0.5110280457   -0.0227839991         -0.4353
H535       H    1.3068856938    0.4814714852    0.0281849773           0.564
C536       C    1.2352515168    0.4984229277   -0.0021488181          0.5639
C537       C    1.2083068322    0.4920412683    0.0085400929          0.5634
H538       H    1.2340136599    0.5097445827   -0.0214431844          0.5642
H539       H    1.2607841361    0.4812764160    0.0273748070          0.5637
C540       C    1.1839950102    0.4938529202    0.0021697288         -0.4355
C541       C    1.1555205997    0.4970832576   -0.0081427587         -0.4338
C542       C    1.1312938203    0.4884112314    0.0107079762          0.5638
N543       N    1.1052431714    0.5000000000    0.0000000000          0.5598
N544       N    1.1169481762    0.5159373654   -0.0111434725          0.5535
N545       N    1.1415120394    0.5087595269   -0.0214664069          0.5634
H546       H    1.1297607564    0.4659939030    0.0118600385         -0.4209
H547       H    1.1346498664    0.4960623088    0.0316435676          0.5494
H548       H    1.1540505340    0.4866351828   -0.0279705217         -0.4179
C493       C    1.0000000000    0.5000000000   -0.3947568286         -0.4356
C494       C    0.9777185606    0.4996149885   -0.3783720592         -0.4355
C495       C    0.9795313011    0.4990372364   -0.3509256254         -0.4354
C496       C    1.0048954154    0.4988152249   -0.3384648655         -0.4355
C497       C    1.0276388944    0.4992540345   -0.3554856363         -0.4356
C498       C    1.0246251672    0.4998711436   -0.3827490142          0.5643
C499       C    1.0117692097    0.4984944743   -0.3108993712          0.5643
H500       H    0.9608478431    0.4987259780   -0.3386324770         -0.4354
H501       H    0.9572123006    0.4997383255   -0.3872176312         -0.4354
H502       H    1.0430568669    0.5002297762   -0.3953503753          0.5642
H503       H    1.0483913045    0.4992017470   -0.3471537490          0.5643
C504       C    0.9972010330    0.4979350078   -0.2873031656         -0.4356
C505       C    1.0107700512    0.4978611962   -0.2602906383           0.564
H506       H    0.9748013732    0.4976004968   -0.2871968804         -0.4353
H507       H    1.0337081443    0.4987917735   -0.3068856938           0.564
C508       C    0.9989818534    0.4975366783   -0.2352515168          0.5639
C509       C    1.0114305363    0.4976298870   -0.2083068322          0.5634
H510       H    0.9766136018    0.4971993875   -0.2340136599          0.5642
H511       H    1.0331168982    0.4982045293   -0.2607841361          0.5637
C512       C    1.0050451424    0.4958719434   -0.1839950102         -0.4355
C513       C    0.9945538614    0.4932805149   -0.1555205997         -0.4338
C514       C    1.0151676624    0.4956523191   -0.1312938203          0.5638
N515       N    1.0000000000    0.5000000000   -0.1052431714          0.5598
N516       N    0.9822030129    0.5078386124   -0.1169481762          0.5535
N517       N    0.9771050330    0.4963453561   -0.1415120394          0.5634
H518       H    1.0277878171    0.4770890340   -0.1297607564         -0.4209
H519       H    1.0290911997    0.5130584411   -0.1346498664          0.5494
H520       H    0.9830289880    0.4740586590   -0.1540505340         -0.4179
C465       C    1.0000000000    0.5000000000    0.3947568286         -0.4356
C466       C    1.0222814394    0.4996149885    0.3783720592         -0.4355
C467       C    1.0204686989    0.4990372364    0.3509256254         -0.4354
C468       C    0.9951045846    0.4988152249    0.3384648655         -0.4355
C469       C    0.9723611056    0.4992540345    0.3554856363         -0.4356
C470       C    0.9753748328    0.4998711436    0.3827490142          0.5643
C471       C    0.9882307903    0.4984944743    0.3108993712          0.5643
H472       H    1.0391521569    0.4987259780    0.3386324770         -0.4354
H473       H    1.0427876994    0.4997383255    0.3872176312         -0.4354
H474       H    0.9569431331    0.5002297762    0.3953503753          0.5642
H475       H    0.9516086955    0.4992017470    0.3471537490          0.5643
C476       C    1.0027989670    0.4979350078    0.2873031656         -0.4356
C477       C    0.9892299488    0.4978611962    0.2602906383           0.564
H478       H    1.0251986268    0.4976004968    0.2871968804         -0.4353
H479       H    0.9662918557    0.4987917735    0.3068856938           0.564
C480       C    1.0010181466    0.4975366783    0.2352515168          0.5639
C481       C    0.9885694637    0.4976298870    0.2083068322          0.5634
H482       H    1.0233863982    0.4971993875    0.2340136599          0.5642
H483       H    0.9668831018    0.4982045293    0.2607841361          0.5637
C484       C    0.9949548576    0.4958719434    0.1839950102         -0.4355
C485       C    1.0054461386    0.4932805149    0.1555205997         -0.4338
C486       C    0.9848323376    0.4956523191    0.1312938203          0.5638
N487       N    1.0000000000    0.5000000000    0.1052431714          0.5598
N488       N    1.0177969871    0.5078386124    0.1169481762          0.5535
N489       N    1.0228949670    0.4963453561    0.1415120394          0.5634
H490       H    0.9722121829    0.4770890340    0.1297607564         -0.4209
H491       H    0.9709088003    0.5130584411    0.1346498664          0.5494
H492       H    1.0169710120    0.4740586590    0.1540505340         -0.4179
C437       C    1.0000000000   -0.3947568286    0.5000000000         -0.4356
C438       C    1.0018763293   -0.3783720592    0.5222056337         -0.4355
C439       C    1.0023313857   -0.3509256254    0.5203582708         -0.4354
C440       C    1.0008542706   -0.3384648655    0.4950362307         -0.4355
C441       C    0.9988933213   -0.3554856363    0.4723731976         -0.4356
C442       C    0.9984794261   -0.3827490142    0.4754214867          0.5643
C443       C    1.0007139649   -0.3108993712    0.4881563874          0.5643
H444       H    1.0038931716   -0.3386324770    0.5389789397         -0.4354
H445       H    1.0031265681   -0.3872176312    0.5426741170         -0.4354
H446       H    0.9968872325   -0.3953503753    0.4570551835          0.5642
H447       H    0.9975557079   -0.3471537490    0.4516638749          0.5643
C448       C    1.0022478024   -0.2873031656    0.5026543914         -0.4356
C449       C    1.0014127347   -0.2602906383    0.4891108924           0.564
H450       H    1.0040816618   -0.2871968804    0.5249813620         -0.4353
H451       H    0.9989480884   -0.3068856938    0.4662866156           0.564
C452       C    1.0025259766   -0.2352515168    0.5008508929          0.5639
C453       C    1.0015992921   -0.2083068322    0.4884363993          0.5634
H454       H    1.0043605062   -0.2340136599    0.5231463396          0.5642
H455       H    0.9995736099   -0.2607841361    0.4668372068          0.5637
C456       C    1.0037809172   -0.1839950102    0.4946897291         -0.4355
C457       C    1.0070691264   -0.1555205997    0.5049839099         -0.4338
C458       C    1.0033221460   -0.1312938203    0.4845752259          0.5638
N459       N    1.0000000000   -0.1052431714    0.5000000000          0.5598
N460       N    0.9933708448   -0.1169481762    0.5182819829          0.5535
N461       N    1.0051797092   -0.1415120394    0.5225988175          0.5634
H462       H    1.0209985882   -0.1297607564    0.4707402249         -0.4209
H463       H    0.9850226450   -0.1346498664    0.4718486302          0.5494
H464       H    1.0270196471   -0.1540505340    0.5151956274         -0.4179
C409       C    1.0000000000    0.1052431714    0.5000000000         -0.4356
C410       C    0.9981236707    0.1216279408    0.4777943663         -0.4355
C411       C    0.9976686143    0.1490743746    0.4796417292         -0.4354
C412       C    0.9991457294    0.1615351345    0.5049637693         -0.4355
C413       C    1.0011066787    0.1445143637    0.5276268024         -0.4356
C414       C    1.0015205739    0.1172509858    0.5245785133          0.5643
C415       C    0.9992860351    0.1891006288    0.5118436126          0.5643
H416       H    0.9961068284    0.1613675230    0.4610210603         -0.4354
H417       H    0.9968734319    0.1127823688    0.4573258830         -0.4354
H418       H    1.0031127675    0.1046496247    0.5429448165          0.5642
H419       H    1.0024442921    0.1528462510    0.5483361251          0.5643
C420       C    0.9977521976    0.2126968344    0.4973456086         -0.4356
C421       C    0.9985872653    0.2397093617    0.5108891076           0.564
H422       H    0.9959183382    0.2128031196    0.4750186380         -0.4353
H423       H    1.0010519116    0.1931143062    0.5337133844           0.564
C424       C    0.9974740234    0.2647484832    0.4991491071          0.5639
C425       C    0.9984007079    0.2916931678    0.5115636007          0.5634
H426       H    0.9956394938    0.2659863401    0.4768536604          0.5642
H427       H    1.0004263901    0.2392158639    0.5331627932          0.5637
C428       C    0.9962190828    0.3160049898    0.5053102709         -0.4355
C429       C    0.9929308736    0.3444794003    0.4950160901         -0.4338
C430       C    0.9966778540    0.3687061797    0.5154247741          0.5638
N431       N    1.0000000000    0.3947568286    0.5000000000          0.5598
N432       N    1.0066291552    0.3830518238    0.4817180171          0.5535
N433       N    0.9948202908    0.3584879606    0.4774011825          0.5634
H434       H    0.9790014118    0.3702392436    0.5292597751         -0.4209
H435       H    1.0149773550    0.3653501336    0.5281513698          0.5494
H436       H    0.9729803529    0.3459494660    0.4848043726         -0.4179
C381       C    0.8947568286   -0.0000000000    0.5000000000         -0.4356
C382       C    0.8783720592    0.0145881597    0.4831537430         -0.4355
C383       C    0.8509256254    0.0129478421    0.4841176849         -0.4354
C384       C    0.8384648655   -0.0041502208    0.5028538486         -0.4355
C385       C    0.8554856363   -0.0190067780    0.5200800234         -0.4356
C386       C    0.8827490142   -0.0165353940    0.5182481837          0.5643
C387       C    0.8108993712   -0.0089778894    0.5077574742          0.5643
H388       H    0.8386324770    0.0251889455    0.4699994742         -0.4354
H389       H    0.8872176312    0.0283697130    0.4679685299         -0.4354
H390       H    0.8953503753   -0.0285731552    0.5322105789          0.5642
H391       H    0.8471537490   -0.0328997595    0.5354959348          0.5643
C392       C    0.7873031656    0.0003311045    0.4965375184         -0.4356
C393       C    0.7602906383   -0.0087823590    0.5065908008           0.564
H394       H    0.7871968804    0.0150357858    0.4796369562         -0.4353
H395       H    0.8068856938   -0.0234027017    0.5242901699           0.564
C396       C    0.7352515168   -0.0011543180    0.4975974750          0.5639
C397       C    0.7083068322   -0.0093955076    0.5069281335          0.5634
H398       H    0.7340136599    0.0135273260    0.4807184414          0.5642
H399       H    0.7607841361   -0.0234452148    0.5234579317          0.5637
C400       C    0.6839950102   -0.0064415416    0.5010004268         -0.4355
C401       C    0.6555205997   -0.0013670921    0.4914593346         -0.4338
C402       C    0.6312938203   -0.0133627277    0.5083903408          0.5638
N403       N    0.6052431714   -0.0000000000    0.5000000000          0.5598
N404       N    0.6169481762    0.0177171400    0.4919825473          0.5535
N405       N    0.6415120394    0.0125633996    0.4805141865          0.5634
H406       H    0.6297607564   -0.0356087326    0.5053938214         -0.4209
H407       H    0.6346498664   -0.0096985069    0.5303769608          0.5494
H408       H    0.6540505340   -0.0079845019    0.4700464334         -0.4179
C353       C    1.3947568286   -0.0000000000    0.5000000000         -0.4356
C354       C    1.3783720592   -0.0198982030    0.5100335584         -0.4355
C355       C    1.3509256254   -0.0180145593    0.5097657667         -0.4354
C356       C    1.3384648655    0.0049236542    0.4989386737         -0.4355
C357       C    1.3554856363    0.0252145590    0.4886557960         -0.4356
C358       C    1.3827490142    0.0222322544    0.4894102726          0.5643
C359       C    1.3108993712    0.0112533068    0.4962391503          0.5643
H360       H    1.3386324770   -0.0347046584    0.5181686875         -0.4354
H361       H    1.3872176312   -0.0384187692    0.5188375651         -0.4354
H362       H    1.3953503753    0.0386750363    0.4810741406          0.5642
H363       H    1.3471537490    0.0439259075    0.4796807920          0.5643
C364       C    1.2873031656   -0.0016228608    0.5030764804         -0.4356
C365       C    1.2602906383    0.0106288301    0.4972438332           0.564
H366       H    1.2871968804   -0.0216494824    0.5131159568         -0.4353
H367       H    1.3068856938    0.0308811993    0.4864334849           0.564
C368       C    1.2352515168    0.0001540333    0.5026609867          0.5639
C369       C    1.2083068322    0.0113241925    0.4971649937          0.5634
H370       H    1.2340136599   -0.0198430950    0.5126893117          0.5642
H371       H    1.2607841361    0.0306040556    0.4872193724          0.5637
C372       C    1.1839950102    0.0063380800    0.5015241569         -0.4355
C373       C    1.1555205997   -0.0019832388    0.5084189471         -0.4338
C374       C    1.1312938203    0.0155494133    0.4973211835          0.5638
N375       N    1.1052431714   -0.0000000000    0.5000000000          0.5598
N376       N    1.1169481762   -0.0194349353    0.5006781490          0.5535
N377       N    1.1415120394   -0.0190292465    0.5132447618          0.5634
H378       H    1.1297607564    0.0349848856    0.5085517791         -0.4209
H379       H    1.1346498664    0.0205209815    0.4755928269          0.5494
H380       H    1.1540505340   -0.0040052977    0.5307396489         -0.4179
C325       C    0.0000000000   -0.1052431714   -0.0000000000         -0.4356
C326       C   -0.0096560175   -0.1216279408    0.0200841257         -0.4355
C327       C   -0.0094238437   -0.1490743746    0.0181957610         -0.4354
C328       C    0.0009681602   -0.1615351345   -0.0049428180         -0.4355
C329       C    0.0108660368   -0.1445143637   -0.0254242835         -0.4356
C330       C    0.0101680117   -0.1172509858   -0.0224282634          0.5643
C331       C    0.0035476750   -0.1891006288   -0.0113223190          0.5643
H332       H   -0.0175100952   -0.1613675230    0.0350415623         -0.4354
H333       H   -0.0181087173   -0.1127823688    0.0387676417         -0.4354
H334       H    0.0181921566   -0.1046496247   -0.0390255304          0.5642
H335       H    0.0194861008   -0.1528462510   -0.0443017769          0.5643
C336       C   -0.0030452862   -0.2126968344    0.0016806668         -0.4356
C337       C    0.0025549637   -0.2397093617   -0.0106789815           0.564
H338       H   -0.0127047955   -0.2128031196    0.0218932999         -0.4353
H339       H    0.0129809444   -0.1931143062   -0.0311318789           0.564
C340       C   -0.0026634209   -0.2647484832   -0.0001037566          0.5639
C341       C    0.0026206580   -0.2916931678   -0.0113757087          0.5634
H342       H   -0.0123123378   -0.2659863401    0.0200791780          0.5642
H343       H    0.0122004306   -0.2392158639   -0.0308399441          0.5637
C344       C   -0.0016435716   -0.3160049898   -0.0063081681         -0.4355
C345       C   -0.0083799949   -0.3444794003    0.0021418661         -0.4338
C346       C    0.0023847082   -0.3687061797   -0.0155972266          0.5638
N347       N    0.0000000000   -0.3947568286    0.0000000000          0.5598
N348       N   -0.0003110245   -0.3830518238    0.0194442757          0.5535
N349       N   -0.0128830573   -0.3584879606    0.0192759636          0.5634
H350       H   -0.0092108986   -0.3702392436   -0.0348171580         -0.4209
H351       H    0.0240153088   -0.3653501336   -0.0209782203          0.5494
H352       H   -0.0306585327   -0.3459494660    0.0045850621         -0.4179
C297       C    0.0000000000    0.1052431714    0.0000000000         -0.4356
C298       C    0.0222716510    0.1216279408   -0.0007644201         -0.4355
C299       C    0.0204493339    0.1490743746   -0.0013112165         -0.4354
C300       C   -0.0049148828    0.1615351345   -0.0011012318         -0.4355
C301       C   -0.0276475901    0.1445143637   -0.0002751527         -0.4356
C302       C   -0.0246237903    0.1172509858    0.0002905416          0.5643
C303       C   -0.0117931427    0.1891006288   -0.0013048716          0.5643
H304       H    0.0391247814    0.1613675230   -0.0019406187         -0.4354
H305       H    0.0427770374    0.1127823688   -0.0009903331         -0.4354
H306       H   -0.0430467092    0.1046496247    0.0009630235          0.5642
H307       H   -0.0483978810    0.1528462510    0.0000259916          0.5643
C308       C    0.0027633932    0.2126968344   -0.0021123605         -0.4356
C309       C   -0.0108049142    0.2397093617   -0.0019550741           0.564
H310       H    0.0251541075    0.2128031196   -0.0028283008         -0.4353
H311       H   -0.0337238323    0.1931143062   -0.0006339842           0.564
C312       C    0.0009760473    0.2647484832   -0.0024803041          0.5639
C313       C   -0.0114692428    0.2916931678   -0.0021751013          0.5634
H314       H    0.0233353106    0.2659863401   -0.0031984888          0.5642
H315       H   -0.0331426730    0.2392158639   -0.0012312125          0.5637
C316       C   -0.0051147136    0.3160049898   -0.0040415365         -0.4355
C317       C    0.0053309124    0.3444794003   -0.0068112611         -0.4338
C318       C   -0.0152395059    0.3687061797   -0.0040887372          0.5638
N319       N   -0.0000000000    0.3947568286    0.0000000000          0.5598
N320       N    0.0179279017    0.3830518238    0.0075343837          0.5535
N321       N    0.0228294061    0.3584879606   -0.0040440270          0.5634
H322       H   -0.0281739726    0.3702392436   -0.0224344024         -0.4209
H323       H   -0.0288645886    0.3653501336    0.0135519853          0.5494
H324       H    0.0165267563    0.3459494660   -0.0262266038         -0.4179
C269       C   -0.1052431714   -0.0000000000    0.0000000000         -0.4356
C270       C   -0.1216279408   -0.0021638473    0.0221794622         -0.4355
C271       C   -0.1490743746   -0.0013827192    0.0204446236         -0.4354
C272       C   -0.1615351345    0.0017364641   -0.0047279464         -0.4355
C273       C   -0.1445143637    0.0038996679   -0.0273725691         -0.4356
C274       C   -0.1172509858    0.0029421911   -0.0244491099          0.5643
C275       C   -0.1891006288    0.0028406546   -0.0115200515          0.5643
H276       H   -0.1613675230   -0.0032086568    0.0390412480         -0.4354
H277       H   -0.1127823688   -0.0046298440    0.0425372805         -0.4354
H278       H   -0.1046496247    0.0046922939   -0.0428010393          0.5642
H279       H   -0.1528462510    0.0063232108   -0.0479830445          0.5643
C280       C   -0.2126968344    0.0017315957    0.0030166182         -0.4356
C281       C   -0.2397093617    0.0033555994   -0.0104550675           0.564
H282       H   -0.2128031196   -0.0004959314    0.0253077549         -0.4353
H283       H   -0.1931143062    0.0050524979   -0.0333492289           0.564
C284       C   -0.2647484832    0.0023308289    0.0012929861          0.5639
C285       C   -0.2916931678    0.0036608738   -0.0110847914          0.5634
H286       H   -0.2659863401    0.0001096526    0.0235532381          0.5642
H287       H   -0.2392158639    0.0055683268   -0.0326947457          0.5637
C288       C   -0.3160049898    0.0046775736   -0.0045403324         -0.4355
C289       C   -0.3444794003    0.0060530745    0.0061783651         -0.4338
C290       C   -0.3687061797    0.0060525667   -0.0145714360          0.5638
N291       N   -0.3947568286   -0.0000000000    0.0000000000          0.5598
N292       N   -0.3830518238   -0.0098211082    0.0167845890          0.5535
N293       N   -0.3584879606    0.0010142499    0.0231626258          0.5634
H294       H   -0.3702392436    0.0259364736   -0.0249874865         -0.4209
H295       H   -0.3653501336   -0.0096483290   -0.0303929355          0.5494
H296       H   -0.3459494660    0.0238319291    0.0198244187         -0.4179
C241       C    0.3947568286   -0.0000000000    0.0000000000         -0.4356
C242       C    0.3783720592    0.0222823879   -0.0003255266         -0.4355
C243       C    0.3509256254    0.0204711962   -0.0009081160         -0.4354
C244       C    0.3384648655   -0.0048922351   -0.0011978399         -0.4355
C245       C    0.3554856363   -0.0276368044   -0.0008197489         -0.4356
C246       C    0.3827490142   -0.0246247354   -0.0001945964          0.5643
C247       C    0.3108993712   -0.0117651486   -0.0015369399          0.5643
H248       H    0.3386324770    0.0391554186   -0.0011694951         -0.4354
H249       H    0.3872176312    0.0427882455   -0.0001474455         -0.4354
H250       H    0.3953503753   -0.0430573269    0.0001148288          0.5642
H251       H    0.3471537490   -0.0483890010   -0.0009274379          0.5643
C252       C    0.2873031656    0.0028044699   -0.0020575125         -0.4356
C253       C    0.2602906383   -0.0107643030   -0.0021675484           0.564
H254       H    0.2871968804    0.0252049428   -0.0023322232         -0.4353
H255       H    0.3068856938   -0.0337047986   -0.0012982110           0.564
C256       C    0.2352515168    0.0010247192   -0.0024605949          0.5639
C257       C    0.2083068322   -0.0114241683   -0.0024006200          0.5634
H258       H    0.2340136599    0.0233937915   -0.0027381691          0.5642
H259       H    0.2607841361   -0.0331119869   -0.0018838747          0.5637
C260       C    0.1839950102   -0.0050341039   -0.0041415106         -0.4355
C261       C    0.1555205997    0.0054640578   -0.0067049219         -0.4338
C262       C    0.1312938203   -0.0151560016   -0.0043881577          0.5638
N263       N    0.1052431714   -0.0000000000    0.0000000000          0.5598
N264       N    0.1169481762    0.0177759974    0.0078860961          0.5535
N265       N    0.1415120394    0.0229046421   -0.0035935094          0.5634
H266       H    0.1297607564   -0.0277265539   -0.0229850680         -0.4209
H267       H    0.1346498664   -0.0291259574    0.0129807313          0.5494
H268       H    0.1540505340    0.0170402057   -0.0258959420         -0.4179
C213       C    0.0000000000    0.0000000000   -0.1052431714         -0.4356
C214       C    0.0187244323    0.0120833113   -0.1216279408         -0.4355
C215       C    0.0175401245    0.0105942710   -0.1490743746         -0.4354
C216       C   -0.0034073085   -0.0037093170   -0.1615351345         -0.4355
C217       C   -0.0225455233   -0.0160051343   -0.1445143637         -0.4356
C218       C   -0.0203854147   -0.0138148589   -0.1172509858          0.5643
C219       C   -0.0089391049   -0.0078021349   -0.1891006288          0.5643
H220       H    0.0332345097    0.0207360046   -0.1613675230         -0.4354
H221       H    0.0356911730    0.0236007597   -0.1127823688         -0.4354
H222       H   -0.0358970252   -0.0237770934   -0.1046496247          0.5642
H223       H   -0.0397563015   -0.0276005806   -0.1528462510          0.5643
C224       C    0.0034747133   -0.0001574050   -0.2126968344         -0.4356
C225       C   -0.0077565429   -0.0077720350   -0.2397093617           0.564
H226       H    0.0222692446    0.0120336675   -0.2128031196         -0.4353
H227       H   -0.0273301784   -0.0197676542   -0.1931143062           0.564
C228       C    0.0022170458   -0.0014796230   -0.2647484832          0.5639
C229       C   -0.0081764749   -0.0083318579   -0.2916931678          0.5634
H230       H    0.0209870324    0.0106916566   -0.2659863401          0.5642
H231       H   -0.0265121112   -0.0199263799   -0.2392158639          0.5637
C232       C   -0.0018932898   -0.0062377693   -0.3160049898         -0.4355
C233       C    0.0082647919   -0.0025505137   -0.3444794003         -0.4338
C234       C   -0.0101802296   -0.0120550088   -0.3687061797          0.5638
N235       N   -0.0000000000    0.0000000000   -0.3947568286          0.5598
N236       N    0.0104212610    0.0164187062   -0.3830518238          0.5535
N237       N    0.0210541842    0.0097086180   -0.3584879606          0.5634
H238       H   -0.0103309001   -0.0345014152   -0.3702392436         -0.4209
H239       H   -0.0314363558   -0.0053456818   -0.3653501336          0.5494
H240       H    0.0285389930   -0.0121034829   -0.3459494660         -0.4179
C185       C   -0.0000000000   -0.0000000000    0.1052431714         -0.4356
C186       C   -0.0222804527   -0.0004384104    0.1216279408         -0.4355
C187       C   -0.0204663327   -0.0010118165    0.1490743746         -0.4354
C188       C    0.0048982408   -0.0011730393    0.1615351345         -0.4355
C189       C    0.0276406028   -0.0006797236    0.1445143637         -0.4356
C190       C    0.0246254053   -0.0000698389    0.1172509858          0.5643
C191       C    0.0117727841   -0.0014773151    0.1891006288          0.5643
H192       H   -0.0391489911   -0.0013678510    0.1613675230         -0.4354
H193       H   -0.0427869493   -0.0003642194    0.1127823688         -0.4354
H194       H    0.0430561926    0.0003329663    0.1046496247          0.5642
H195       H    0.0483930786   -0.0006822754    0.1528462510          0.5643
C196       C   -0.0027940100   -0.0020716943    0.2126968344         -0.4356
C197       C    0.0107751462   -0.0021129860    0.2397093617           0.564
H198       H   -0.0251928038   -0.0024598877    0.2128031196         -0.4353
H199       H    0.0337109432   -0.0011274375    0.1931143062           0.564
C200       C   -0.0010122401   -0.0024657548    0.2647484832          0.5639
C201       C    0.0114361838   -0.0023427116    0.2916931678          0.5634
H202       H   -0.0233796190   -0.0028566527    0.2659863401          0.5642
H203       H    0.0331211061   -0.0017160971    0.2392158639          0.5637
C204       C    0.0050550212   -0.0041159534    0.3160049898         -0.4355
C205       C   -0.0054300189   -0.0067325181    0.3444794003         -0.4338
C206       C    0.0151780385   -0.0043113173    0.3687061797          0.5638
N207       N    0.0000000000    0.0000000000    0.3947568286          0.5598
N208       N   -0.0178157222    0.0077959374    0.3830518238          0.5535
N209       N   -0.0228861425   -0.0037095039    0.3584879606          0.5634
H210       H    0.0278426461   -0.0228443035    0.3702392436         -0.4209
H211       H    0.0290598201    0.0131281240    0.3653501336          0.5494
H212       H   -0.0169087919   -0.0259819395    0.3459494660         -0.4179
loop_
_geom_bond_atom_site_label_1
_geom_bond_atom_site_label_2
_geom_bond_distance
_geom_bond_site_symmetry_2
_ccdc_geom_bond_type
Zn1          O5 1.942       .   S
Zn1          O6 1.922       .   S
Zn1         O10 1.922       .   S
Zn1         O17 1.922       .   S
Zn2          O5 1.942       .   S
Zn2          O7 1.922       .   S
Zn2          O9 1.922       .   S
Zn2         O13 1.922       .   S
Zn3          O5 1.942       .   S
Zn3          O8 1.922       .   S
Zn3         O11 1.922       .   S
Zn3         O14 1.922       .   S
Zn4          O5 1.942       .   S
Zn4         O12 1.922       .   S
Zn4         O15 1.922       .   S
Zn4         O16 1.922       .   S
O6          C18 1.304       .   A
O7          C19 1.304       .   A
O8          C20 1.304       .   A
O9          C18 1.304       .   A
O10         C20 1.304       .   A
O11         C19 1.304       .   A
O12         C21 1.304       .   A
O13         C22 1.304       .   A
O14         C21 1.304       .   A
O15         C22 1.304       .   A
O16         C23 1.304       .   A
O17         C23 1.304       .   A
C18        C185 1.540       .   S
C19        C325 1.540       .   S
C20        C269 1.540       .   S
C21        C213 1.540       .   S
C22        N263 1.540       .   S
C23        C297 1.540       .   S
Zn24        O28 1.942       .   S
Zn24        O29 1.922       .   S
Zn24        O33 1.922       .   S
Zn24        O40 1.922       .   S
Zn25        O28 1.942       .   S
Zn25        O30 1.922       .   S
Zn25        O32 1.922       .   S
Zn25        O36 1.922       .   S
Zn26        O28 1.942       .   S
Zn26        O31 1.922       .   S
Zn26        O34 1.922       .   S
Zn26        O37 1.922       .   S
Zn27        O28 1.942       .   S
Zn27        O35 1.922       .   S
Zn27        O38 1.922       .   S
Zn27        O39 1.922       .   S
O29         C41 1.304       .   A
O30         C42 1.304       .   A
O31         C43 1.304       .   A
O32         C41 1.304       .   A
O33         C43 1.304       .   A
O34         C42 1.304       .   A
O35         C44 1.304       .   A
O36         C45 1.304       .   A
O37         C44 1.304       .   A
O38         C45 1.304       .   A
O39         C46 1.304       .   A
O40         C46 1.304       .   A
C41        N207 1.540   1_655   S
C42        N375 1.540       .   S
C43        C409 1.540       .   S
C44        N235 1.540   1_656   S
C45        N459 1.540       .   S
C46        C381 1.540       .   S
Zn47        O51 1.942       .   S
Zn47        O52 1.922       .   S
Zn47        O56 1.922       .   S
Zn47        O63 1.922       .   S
Zn48        O51 1.942       .   S
Zn48        O53 1.922       .   S
Zn48        O55 1.922       .   S
Zn48        O59 1.922       .   S
Zn49        O51 1.942       .   S
Zn49        O54 1.922       .   S
Zn49        O57 1.922       .   S
Zn49        O60 1.922       .   S
Zn50        O51 1.942       .   S
Zn50        O58 1.922       .   S
Zn50        O61 1.922       .   S
Zn50        O62 1.922       .   S
O52         C64 1.304       .   A
O53         C65 1.304       .   A
O54         C66 1.304       .   A
O55         C64 1.304       .   A
O56         C66 1.304       .   A
O57         C65 1.304       .   A
O58         C67 1.304       .   A
O59         C68 1.304       .   A
O60         C67 1.304       .   A
O61         C68 1.304       .   A
O62         C69 1.304       .   A
O63         C69 1.304       .   A
C64        N319 1.540   1_655   S
C65        N487 1.540       .   S
C66        N543 1.540       .   S
C67        N347 1.540   1_665   S
C68        N571 1.540       .   S
C69        N515 1.540       .   S
Zn70        O74 1.942       .   S
Zn70        O75 1.922       .   S
Zn70        O79 1.922       .   S
Zn70        O86 1.922       .   S
Zn71        O74 1.942       .   S
Zn71        O76 1.922       .   S
Zn71        O78 1.922       .   S
Zn71        O82 1.922       .   S
Zn72        O74 1.942       .   S
Zn72        O77 1.922       .   S
Zn72        O80 1.922       .   S
Zn72        O83 1.922       .   S
Zn73        O74 1.942       .   S
Zn73        O81 1.922       .   S
Zn73        O84 1.922       .   S
Zn73        O85 1.922       .   S
O75         C87 1.304       .   A
O76         C88 1.304       .   A
O77         C89 1.304       .   A
O78         C87 1.304       .   A
O79         C89 1.304       .   A
O80         C88 1.304       .   A
O81         C90 1.304       .   A
O82         C91 1.304       .   A
O83         C90 1.304       .   A
O84         C91 1.304       .   A
O85         C92 1.304       .   A
O86         C92 1.304       .   A
C87        N431 1.540       .   S
C88        C465 1.540       .   S
C89        N627 1.540       .   S
C90        C437 1.540   1_565   S
C91        C577 1.540       .   S
C92        C493 1.540   1_556   S
Zn93        O97 1.942       .   S
Zn93        O98 1.922       .   S
Zn93       O102 1.922       .   S
Zn93       O109 1.922       .   S
Zn94        O97 1.942       .   S
Zn94        O99 1.922       .   S
Zn94       O101 1.922       .   S
Zn94       O105 1.922       .   S
Zn95        O97 1.942       .   S
Zn95       O100 1.922       .   S
Zn95       O103 1.922       .   S
Zn95       O106 1.922       .   S
Zn96        O97 1.942       .   S
Zn96       O104 1.922       .   S
Zn96       O107 1.922       .   S
Zn96       O108 1.922       .   S
O98        C110 1.304       .   A
O99        C111 1.304       .   A
O100       C112 1.304       .   A
O101       C110 1.304       .   A
O102       C112 1.304       .   A
O103       C111 1.304       .   A
O104       C113 1.304       .   A
O105       C114 1.304       .   A
O106       C113 1.304       .   A
O107       C114 1.304       .   A
O108       C115 1.304       .   A
O109       C115 1.304       .   A
C110       C241 1.540   1_565   S
C111       C633 1.540       .   S
C112       N739 1.540       .   S
C113       N291 1.540   1_665   S
C114       C689 1.540       .   S
C115       N683 1.540       .   S
Zn116      O120 1.942       .   S
Zn116      O121 1.922       .   S
Zn116      O125 1.922       .   S
Zn116      O132 1.922       .   S
Zn117      O120 1.942       .   S
Zn117      O122 1.922       .   S
Zn117      O124 1.922       .   S
Zn117      O128 1.922       .   S
Zn118      O120 1.942       .   S
Zn118      O123 1.922       .   S
Zn118      O126 1.922       .   S
Zn118      O129 1.922       .   S
Zn119      O120 1.942       .   S
Zn119      O127 1.922       .   S
Zn119      O130 1.922       .   S
Zn119      O131 1.922       .   S
O121       C133 1.304       .   A
O122       C134 1.304       .   A
O123       C135 1.304       .   A
O124       C133 1.304       .   A
O125       C135 1.304       .   A
O126       C134 1.304       .   A
O127       C136 1.304       .   A
O128       C137 1.304       .   A
O129       C136 1.304       .   A
O130       C137 1.304       .   A
O131       C138 1.304       .   A
O132       C138 1.304       .   A
C133       N795 1.540       .   S
C134       C353 1.540   1_465   S
C135       C661 1.540   1_556   S
C136       C745 1.540       .   S
C137       N655 1.540       .   S
C138       N403 1.540   1_565   S
Zn139      O143 1.942       .   S
Zn139      O144 1.922       .   S
Zn139      O148 1.922       .   S
Zn139      O155 1.922       .   S
Zn140      O143 1.942       .   S
Zn140      O145 1.922       .   S
Zn140      O147 1.922       .   S
Zn140      O151 1.922       .   S
Zn141      O143 1.942       .   S
Zn141      O146 1.922       .   S
Zn141      O149 1.922       .   S
Zn141      O152 1.922       .   S
Zn142      O143 1.942       .   S
Zn142      O150 1.922       .   S
Zn142      O153 1.922       .   S
Zn142      O154 1.922       .   S
O144       C156 1.304       .   A
O145       C157 1.304       .   A
O146       C158 1.304       .   A
O147       C156 1.304       .   A
O148       C158 1.304       .   A
O149       C157 1.304       .   A
O150       C159 1.304       .   A
O151       C160 1.304       .   A
O152       C159 1.304       .   A
O153       C160 1.304       .   A
O154       C161 1.304       .   A
O155       C161 1.304       .   A
C156       C521 1.540   1_455   S
C157       N711 1.540   1_545   S
C158       N851 1.540       .   S
C159       C549 1.540       .   S
C160       N823 1.540       .   S
C161       C717 1.540       .   S
Zn162      O166 1.942       .   S
Zn162      O167 1.922       .   S
Zn162      O171 1.922       .   S
Zn162      O178 1.922       .   S
Zn163      O166 1.942       .   S
Zn163      O168 1.922       .   S
Zn163      O170 1.922       .   S
Zn163      O174 1.922       .   S
Zn164      O166 1.942       .   S
Zn164      O169 1.922       .   S
Zn164      O172 1.922       .   S
Zn164      O175 1.922       .   S
Zn165      O166 1.942       .   S
Zn165      O173 1.922       .   S
Zn165      O176 1.922       .   S
Zn165      O177 1.922       .   S
O167       C179 1.304       .   A
O168       C180 1.304       .   A
O169       C181 1.304       .   A
O170       C179 1.304       .   A
O171       C181 1.304       .   A
O172       C180 1.304       .   A
O173       C182 1.304       .   A
O174       C183 1.304       .   A
O175       C182 1.304       .   A
O176       C183 1.304       .   A
O177       C184 1.304       .   A
O178       C184 1.304       .   A
C179       C801 1.540       .   S
C180       N599 1.540   1_455   S
C181       N767 1.540   1_545   S
C182       C829 1.540   1_556   S
C183       C773 1.540       .   S
C184       C605 1.540       .   S
C829       C830 0.023       .   A
C829       C834 0.023       .   A
C830       C831 0.023       .   A
C830       H837 0.019       .   A
C831       C832 0.023       .   A
C831       H836 0.019       .   A
C832       C833 0.024       .   A
C832       C835 0.024       .   A
C833       C834 0.023       .   A
C833       H839 0.019       .   A
C834       H838 0.019       .   A
C835       C840 0.023       .   A
C835       H843 0.019       .   A
C840       C841 0.025       .   A
C840       H842 0.019       .   A
C841       C844 0.023       .   A
C841       H847 0.019       .   A
C844       C845 0.025       .   A
C844       H846 0.019       .   A
C845       C848 0.021       .   A
C848       C849 0.025       .   A
C849       C850 0.026       .   A
C849       N853 0.019       .   A
C849       H856 0.019       .   A
C850       N851 0.025       .   A
C850       H854 0.019       .   A
C850       H855 0.019       .   A
N851       N852 0.019       .   A
N852       N853 0.023       .   A
C801       C802 0.023       .   A
C801       C806 0.023       .   A
C802       C803 0.023       .   A
C802       H809 0.019       .   A
C803       C804 0.023       .   A
C803       H808 0.019       .   A
C804       C805 0.024       .   A
C804       C807 0.024       .   A
C805       C806 0.023       .   A
C805       H811 0.019       .   A
C806       H810 0.019       .   A
C807       C812 0.023       .   A
C807       H815 0.019       .   A
C812       C813 0.025       .   A
C812       H814 0.019       .   A
C813       C816 0.023       .   A
C813       H819 0.019       .   A
C816       C817 0.025       .   A
C816       H818 0.019       .   A
C817       C820 0.021       .   A
C820       C821 0.025       .   A
C821       C822 0.026       .   A
C821       N825 0.019       .   A
C821       H828 0.019       .   A
C822       N823 0.025       .   A
C822       H826 0.019       .   A
C822       H827 0.019       .   A
N823       N824 0.019       .   A
N824       N825 0.023       .   A
C773       C774 0.023       .   A
C773       C778 0.023       .   A
C774       C775 0.023       .   A
C774       H781 0.019       .   A
C775       C776 0.023       .   A
C775       H780 0.019       .   A
C776       C777 0.024       .   A
C776       C779 0.024       .   A
C777       C778 0.023       .   A
C777       H783 0.019       .   A
C778       H782 0.019       .   A
C779       C784 0.023       .   A
C779       H787 0.019       .   A
C784       C785 0.025       .   A
C784       H786 0.019       .   A
C785       C788 0.023       .   A
C785       H791 0.019       .   A
C788       C789 0.025       .   A
C788       H790 0.019       .   A
C789       C792 0.021       .   A
C792       C793 0.025       .   A
C793       C794 0.026       .   A
C793       N797 0.019       .   A
C793       H800 0.019       .   A
C794       N795 0.025       .   A
C794       H798 0.019       .   A
C794       H799 0.019       .   A
N795       N796 0.019       .   A
N796       N797 0.023       .   A
C745       C746 0.023       .   A
C745       C750 0.023       .   A
C746       C747 0.023       .   A
C746       H753 0.019       .   A
C747       C748 0.023       .   A
C747       H752 0.019       .   A
C748       C749 0.024       .   A
C748       C751 0.024       .   A
C749       C750 0.023       .   A
C749       H755 0.019       .   A
C750       H754 0.019       .   A
C751       C756 0.023       .   A
C751       H759 0.019       .   A
C756       C757 0.025       .   A
C756       H758 0.019       .   A
C757       C760 0.023       .   A
C757       H763 0.019       .   A
C760       C761 0.025       .   A
C760       H762 0.019       .   A
C761       C764 0.021       .   A
C764       C765 0.025       .   A
C765       C766 0.026       .   A
C765       N769 0.019       .   A
C765       H772 0.019       .   A
C766       N767 0.025       .   A
C766       H770 0.019       .   A
C766       H771 0.019       .   A
N767       N768 0.019       .   A
N768       N769 0.023       .   A
C717       C718 0.023       .   A
C717       C722 0.023       .   A
C718       C719 0.023       .   A
C718       H725 0.019       .   A
C719       C720 0.023       .   A
C719       H724 0.019       .   A
C720       C721 0.024       .   A
C720       C723 0.024       .   A
C721       C722 0.023       .   A
C721       H727 0.019       .   A
C722       H726 0.019       .   A
C723       C728 0.023       .   A
C723       H731 0.019       .   A
C728       C729 0.025       .   A
C728       H730 0.019       .   A
C729       C732 0.023       .   A
C729       H735 0.019       .   A
C732       C733 0.025       .   A
C732       H734 0.019       .   A
C733       C736 0.021       .   A
C736       C737 0.025       .   A
C737       C738 0.026       .   A
C737       N741 0.019       .   A
C737       H744 0.019       .   A
C738       N739 0.025       .   A
C738       H742 0.019       .   A
C738       H743 0.019       .   A
N739       N740 0.019       .   A
N740       N741 0.023       .   A
C689       C690 0.023       .   A
C689       C694 0.023       .   A
C690       C691 0.023       .   A
C690       H697 0.019       .   A
C691       C692 0.023       .   A
C691       H696 0.019       .   A
C692       C693 0.024       .   A
C692       C695 0.024       .   A
C693       C694 0.023       .   A
C693       H699 0.019       .   A
C694       H698 0.019       .   A
C695       C700 0.023       .   A
C695       H703 0.019       .   A
C700       C701 0.025       .   A
C700       H702 0.019       .   A
C701       C704 0.023       .   A
C701       H707 0.019       .   A
C704       C705 0.025       .   A
C704       H706 0.019       .   A
C705       C708 0.021       .   A
C708       C709 0.025       .   A
C709       C710 0.026       .   A
C709       N713 0.019       .   A
C709       H716 0.019       .   A
C710       N711 0.025       .   A
C710       H714 0.019       .   A
C710       H715 0.019       .   A
N711       N712 0.019       .   A
N712       N713 0.023       .   A
C661       C662 0.023       .   A
C661       C666 0.023       .   A
C662       C663 0.023       .   A
C662       H669 0.019       .   A
C663       C664 0.023       .   A
C663       H668 0.019       .   A
C664       C665 0.024       .   A
C664       C667 0.024       .   A
C665       C666 0.023       .   A
C665       H671 0.019       .   A
C666       H670 0.019       .   A
C667       C672 0.023       .   A
C667       H675 0.019       .   A
C672       C673 0.025       .   A
C672       H674 0.019       .   A
C673       C676 0.023       .   A
C673       H679 0.019       .   A
C676       C677 0.025       .   A
C676       H678 0.019       .   A
C677       C680 0.021       .   A
C680       C681 0.025       .   A
C681       C682 0.026       .   A
C681       N685 0.019       .   A
C681       H688 0.019       .   A
C682       N683 0.025       .   A
C682       H686 0.019       .   A
C682       H687 0.019       .   A
N683       N684 0.019       .   A
N684       N685 0.023       .   A
C633       C634 0.023       .   A
C633       C638 0.023       .   A
C634       C635 0.023       .   A
C634       H641 0.019       .   A
C635       C636 0.023       .   A
C635       H640 0.019       .   A
C636       C637 0.024       .   A
C636       C639 0.024       .   A
C637       C638 0.023       .   A
C637       H643 0.019       .   A
C638       H642 0.019       .   A
C639       C644 0.023       .   A
C639       H647 0.019       .   A
C644       C645 0.025       .   A
C644       H646 0.019       .   A
C645       C648 0.023       .   A
C645       H651 0.019       .   A
C648       C649 0.025       .   A
C648       H650 0.019       .   A
C649       C652 0.021       .   A
C652       C653 0.025       .   A
C653       C654 0.026       .   A
C653       N657 0.019       .   A
C653       H660 0.019       .   A
C654       N655 0.025       .   A
C654       H658 0.019       .   A
C654       H659 0.019       .   A
N655       N656 0.019       .   A
N656       N657 0.023       .   A
C605       C606 0.023       .   A
C605       C610 0.023       .   A
C606       C607 0.023       .   A
C606       H613 0.019       .   A
C607       C608 0.023       .   A
C607       H612 0.019       .   A
C608       C609 0.024       .   A
C608       C611 0.024       .   A
C609       C610 0.023       .   A
C609       H615 0.019       .   A
C610       H614 0.019       .   A
C611       C616 0.023       .   A
C611       H619 0.019       .   A
C616       C617 0.025       .   A
C616       H618 0.019       .   A
C617       C620 0.023       .   A
C617       H623 0.019       .   A
C620       C621 0.025       .   A
C620       H622 0.019       .   A
C621       C624 0.021       .   A
C624       C625 0.025       .   A
C625       C626 0.026       .   A
C625       N629 0.019       .   A
C625       H632 0.019       .   A
C626       N627 0.025       .   A
C626       H630 0.019       .   A
C626       H631 0.019       .   A
N627       N628 0.019       .   A
N628       N629 0.023       .   A
C577       C578 0.023       .   A
C577       C582 0.023       .   A
C578       C579 0.023       .   A
C578       H585 0.019       .   A
C579       C580 0.023       .   A
C579       H584 0.019       .   A
C580       C581 0.024       .   A
C580       C583 0.024       .   A
C581       C582 0.023       .   A
C581       H587 0.019       .   A
C582       H586 0.019       .   A
C583       C588 0.023       .   A
C583       H591 0.019       .   A
C588       C589 0.025       .   A
C588       H590 0.019       .   A
C589       C592 0.023       .   A
C589       H595 0.019       .   A
C592       C593 0.025       .   A
C592       H594 0.019       .   A
C593       C596 0.021       .   A
C596       C597 0.025       .   A
C597       C598 0.026       .   A
C597       N601 0.019       .   A
C597       H604 0.019       .   A
C598       N599 0.025       .   A
C598       H602 0.019       .   A
C598       H603 0.019       .   A
N599       N600 0.019       .   A
N600       N601 0.023       .   A
C549       C550 0.023       .   A
C549       C554 0.023       .   A
C550       C551 0.023       .   A
C550       H557 0.019       .   A
C551       C552 0.023       .   A
C551       H556 0.019       .   A
C552       C553 0.024       .   A
C552       C555 0.024       .   A
C553       C554 0.023       .   A
C553       H559 0.019       .   A
C554       H558 0.019       .   A
C555       C560 0.023       .   A
C555       H563 0.019       .   A
C560       C561 0.025       .   A
C560       H562 0.019       .   A
C561       C564 0.023       .   A
C561       H567 0.019       .   A
C564       C565 0.025       .   A
C564       H566 0.019       .   A
C565       C568 0.021       .   A
C568       C569 0.025       .   A
C569       C570 0.026       .   A
C569       N573 0.019       .   A
C569       H576 0.019       .   A
C570       N571 0.025       .   A
C570       H574 0.019       .   A
C570       H575 0.019       .   A
N571       N572 0.019       .   A
N572       N573 0.023       .   A
C521       C522 0.023       .   A
C521       C526 0.023       .   A
C522       C523 0.023       .   A
C522       H529 0.019       .   A
C523       C524 0.023       .   A
C523       H528 0.019       .   A
C524       C525 0.024       .   A
C524       C527 0.024       .   A
C525       C526 0.023       .   A
C525       H531 0.019       .   A
C526       H530 0.019       .   A
C527       C532 0.023       .   A
C527       H535 0.019       .   A
C532       C533 0.025       .   A
C532       H534 0.019       .   A
C533       C536 0.023       .   A
C533       H539 0.019       .   A
C536       C537 0.025       .   A
C536       H538 0.019       .   A
C537       C540 0.021       .   A
C540       C541 0.025       .   A
C541       C542 0.026       .   A
C541       N545 0.019       .   A
C541       H548 0.019       .   A
C542       N543 0.025       .   A
C542       H546 0.019       .   A
C542       H547 0.019       .   A
N543       N544 0.019       .   A
N544       N545 0.023       .   A
C493       C494 0.023       .   A
C493       C498 0.023       .   A
C494       C495 0.023       .   A
C494       H501 0.019       .   A
C495       C496 0.023       .   A
C495       H500 0.019       .   A
C496       C497 0.024       .   A
C496       C499 0.024       .   A
C497       C498 0.023       .   A
C497       H503 0.019       .   A
C498       H502 0.019       .   A
C499       C504 0.023       .   A
C499       H507 0.019       .   A
C504       C505 0.025       .   A
C504       H506 0.019       .   A
C505       C508 0.023       .   A
C505       H511 0.019       .   A
C508       C509 0.025       .   A
C508       H510 0.019       .   A
C509       C512 0.021       .   A
C512       C513 0.025       .   A
C513       C514 0.026       .   A
C513       N517 0.019       .   A
C513       H520 0.019       .   A
C514       N515 0.025       .   A
C514       H518 0.019       .   A
C514       H519 0.019       .   A
N515       N516 0.019       .   A
N516       N517 0.023       .   A
C465       C466 0.023       .   A
C465       C470 0.023       .   A
C466       C467 0.023       .   A
C466       H473 0.019       .   A
C467       C468 0.023       .   A
C467       H472 0.019       .   A
C468       C469 0.024       .   A
C468       C471 0.024       .   A
C469       C470 0.023       .   A
C469       H475 0.019       .   A
C470       H474 0.019       .   A
C471       C476 0.023       .   A
C471       H479 0.019       .   A
C476       C477 0.025       .   A
C476       H478 0.019       .   A
C477       C480 0.023       .   A
C477       H483 0.019       .   A
C480       C481 0.025       .   A
C480       H482 0.019       .   A
C481       C484 0.021       .   A
C484       C485 0.025       .   A
C485       C486 0.026       .   A
C485       N489 0.019       .   A
C485       H492 0.019       .   A
C486       N487 0.025       .   A
C486       H490 0.019       .   A
C486       H491 0.019       .   A
N487       N488 0.019       .   A
N488       N489 0.023       .   A
C437       C438 0.023       .   A
C437       C442 0.023       .   A
C438       C439 0.023       .   A
C438       H445 0.019       .   A
C439       C440 0.023       .   A
C439       H444 0.019       .   A
C440       C441 0.024       .   A
C440       C443 0.024       .   A
C441       C442 0.023       .   A
C441       H447 0.019       .   A
C442       H446 0.019       .   A
C443       C448 0.023       .   A
C443       H451 0.019       .   A
C448       C449 0.025       .   A
C448       H450 0.019       .   A
C449       C452 0.023       .   A
C449       H455 0.019       .   A
C452       C453 0.025       .   A
C452       H454 0.019       .   A
C453       C456 0.021       .   A
C456       C457 0.025       .   A
C457       C458 0.026       .   A
C457       N461 0.019       .   A
C457       H464 0.019       .   A
C458       N459 0.025       .   A
C458       H462 0.019       .   A
C458       H463 0.019       .   A
N459       N460 0.019       .   A
N460       N461 0.023       .   A
C409       C410 0.023       .   A
C409       C414 0.023       .   A
C410       C411 0.023       .   A
C410       H417 0.019       .   A
C411       C412 0.023       .   A
C411       H416 0.019       .   A
C412       C413 0.024       .   A
C412       C415 0.024       .   A
C413       C414 0.023       .   A
C413       H419 0.019       .   A
C414       H418 0.019       .   A
C415       C420 0.023       .   A
C415       H423 0.019       .   A
C420       C421 0.025       .   A
C420       H422 0.019       .   A
C421       C424 0.023       .   A
C421       H427 0.019       .   A
C424       C425 0.025       .   A
C424       H426 0.019       .   A
C425       C428 0.021       .   A
C428       C429 0.025       .   A
C429       C430 0.026       .   A
C429       N433 0.019       .   A
C429       H436 0.019       .   A
C430       N431 0.025       .   A
C430       H434 0.019       .   A
C430       H435 0.019       .   A
N431       N432 0.019       .   A
N432       N433 0.023       .   A
C381       C382 0.023       .   A
C381       C386 0.023       .   A
C382       C383 0.023       .   A
C382       H389 0.019       .   A
C383       C384 0.023       .   A
C383       H388 0.019       .   A
C384       C385 0.024       .   A
C384       C387 0.024       .   A
C385       C386 0.023       .   A
C385       H391 0.019       .   A
C386       H390 0.019       .   A
C387       C392 0.023       .   A
C387       H395 0.019       .   A
C392       C393 0.025       .   A
C392       H394 0.019       .   A
C393       C396 0.023       .   A
C393       H399 0.019       .   A
C396       C397 0.025       .   A
C396       H398 0.019       .   A
C397       C400 0.021       .   A
C400       C401 0.025       .   A
C401       C402 0.026       .   A
C401       N405 0.019       .   A
C401       H408 0.019       .   A
C402       N403 0.025       .   A
C402       H406 0.019       .   A
C402       H407 0.019       .   A
N403       N404 0.019       .   A
N404       N405 0.023       .   A
C353       C354 0.023       .   A
C353       C358 0.023       .   A
C354       C355 0.023       .   A
C354       H361 0.019       .   A
C355       C356 0.023       .   A
C355       H360 0.019       .   A
C356       C357 0.024       .   A
C356       C359 0.024       .   A
C357       C358 0.023       .   A
C357       H363 0.019       .   A
C358       H362 0.019       .   A
C359       C364 0.023       .   A
C359       H367 0.019       .   A
C364       C365 0.025       .   A
C364       H366 0.019       .   A
C365       C368 0.023       .   A
C365       H371 0.019       .   A
C368       C369 0.025       .   A
C368       H370 0.019       .   A
C369       C372 0.021       .   A
C372       C373 0.025       .   A
C373       C374 0.026       .   A
C373       N377 0.019       .   A
C373       H380 0.019       .   A
C374       N375 0.025       .   A
C374       H378 0.019       .   A
C374       H379 0.019       .   A
N375       N376 0.019       .   A
N376       N377 0.023       .   A
C325       C326 0.023       .   A
C325       C330 0.023       .   A
C326       C327 0.023       .   A
C326       H333 0.019       .   A
C327       C328 0.023       .   A
C327       H332 0.019       .   A
C328       C329 0.024       .   A
C328       C331 0.024       .   A
C329       C330 0.023       .   A
C329       H335 0.019       .   A
C330       H334 0.019       .   A
C331       C336 0.023       .   A
C331       H339 0.019       .   A
C336       C337 0.025       .   A
C336       H338 0.019       .   A
C337       C340 0.023       .   A
C337       H343 0.019       .   A
C340       C341 0.025       .   A
C340       H342 0.019       .   A
C341       C344 0.021       .   A
C344       C345 0.025       .   A
C345       C346 0.026       .   A
C345       N349 0.019       .   A
C345       H352 0.019       .   A
C346       N347 0.025       .   A
C346       H350 0.019       .   A
C346       H351 0.019       .   A
N347       N348 0.019       .   A
N348       N349 0.023       .   A
C297       C298 0.023       .   A
C297       C302 0.023       .   A
C298       C299 0.023       .   A
C298       H305 0.019       .   A
C299       C300 0.023       .   A
C299       H304 0.019       .   A
C300       C301 0.024       .   A
C300       C303 0.024       .   A
C301       C302 0.023       .   A
C301       H307 0.019       .   A
C302       H306 0.019       .   A
C303       C308 0.023       .   A
C303       H311 0.019       .   A
C308       C309 0.025       .   A
C308       H310 0.019       .   A
C309       C312 0.023       .   A
C309       H315 0.019       .   A
C312       C313 0.025       .   A
C312       H314 0.019       .   A
C313       C316 0.021       .   A
C316       C317 0.025       .   A
C317       C318 0.026       .   A
C317       N321 0.019       .   A
C317       H324 0.019       .   A
C318       N319 0.025       .   A
C318       H322 0.019       .   A
C318       H323 0.019       .   A
N319       N320 0.019       .   A
N320       N321 0.023       .   A
C269       C270 0.023       .   A
C269       C274 0.023       .   A
C270       C271 0.023       .   A
C270       H277 0.019       .   A
C271       C272 0.023       .   A
C271       H276 0.019       .   A
C272       C273 0.024       .   A
C272       C275 0.024       .   A
C273       C274 0.023       .   A
C273       H279 0.019       .   A
C274       H278 0.019       .   A
C275       C280 0.023       .   A
C275       H283 0.019       .   A
C280       C281 0.025       .   A
C280       H282 0.019       .   A
C281       C284 0.023       .   A
C281       H287 0.019       .   A
C284       C285 0.025       .   A
C284       H286 0.019       .   A
C285       C288 0.021       .   A
C288       C289 0.025       .   A
C289       C290 0.026       .   A
C289       N293 0.019       .   A
C289       H296 0.019       .   A
C290       N291 0.025       .   A
C290       H294 0.019       .   A
C290       H295 0.019       .   A
N291       N292 0.019       .   A
N292       N293 0.023       .   A
C241       C242 0.023       .   A
C241       C246 0.023       .   A
C242       C243 0.023       .   A
C242       H249 0.019       .   A
C243       C244 0.023       .   A
C243       H248 0.019       .   A
C244       C245 0.024       .   A
C244       C247 0.024       .   A
C245       C246 0.023       .   A
C245       H251 0.019       .   A
C246       H250 0.019       .   A
C247       C252 0.023       .   A
C247       H255 0.019       .   A
C252       C253 0.025       .   A
C252       H254 0.019       .   A
C253       C256 0.023       .   A
C253       H259 0.019       .   A
C256       C257 0.025       .   A
C256       H258 0.019       .   A
C257       C260 0.021       .   A
C260       C261 0.025       .   A
C261       C262 0.026       .   A
C261       N265 0.019       .   A
C261       H268 0.019       .   A
C262       N263 0.025       .   A
C262       H266 0.019       .   A
C262       H267 0.019       .   A
N263       N264 0.019       .   A
N264       N265 0.023       .   A
C213       C214 0.023       .   A
C213       C218 0.023       .   A
C214       C215 0.023       .   A
C214       H221 0.019       .   A
C215       C216 0.023       .   A
C215       H220 0.019       .   A
C216       C217 0.024       .   A
C216       C219 0.024       .   A
C217       C218 0.023       .   A
C217       H223 0.019       .   A
C218       H222 0.019       .   A
C219       C224 0.023       .   A
C219       H227 0.019       .   A
C224       C225 0.025       .   A
C224       H226 0.019       .   A
C225       C228 0.023       .   A
C225       H231 0.019       .   A
C228       C229 0.025       .   A
C228       H230 0.019       .   A
C229       C232 0.021       .   A
C232       C233 0.025       .   A
C233       C234 0.026       .   A
C233       N237 0.019       .   A
C233       H240 0.019       .   A
C234       N235 0.025       .   A
C234       H238 0.019       .   A
C234       H239 0.019       .   A
N235       N236 0.019       .   A
N236       N237 0.023       .   A
C185       C186 0.023       .   A
C185       C190 0.023       .   A
C186       C187 0.023       .   A
C186       H193 0.019       .   A
C187       C188 0.023       .   A
C187       H192 0.019       .   A
C188       C189 0.024       .   A
C188       C191 0.024       .   A
C189       C190 0.023       .   A
C189       H195 0.019       .   A
C190       H194 0.019       .   A
C191       C196 0.023       .   A
C191       H199 0.019       .   A
C196       C197 0.025       .   A
C196       H198 0.019       .   A
C197       C200 0.023       .   A
C197       H203 0.019       .   A
C200       C201 0.025       .   A
C200       H202 0.019       .   A
C201       C204 0.021       .   A
C204       C205 0.025       .   A
C205       C206 0.026       .   A
C205       N209 0.019       .   A
C205       H212 0.019       .   A
C206       N207 0.025       .   A
C206       H210 0.019       .   A
C206       H211 0.019       .   A
N207       N208 0.019       .   A
N208       N209 0.023       .   A
