data_pcu_v1-6c_Zn_1_Ch_1-5_fer_tobacco
_audit_creation_date              2021-02-03
_audit_creation_method            'tobacco_3.0'
_symmetry_space_group_name_H-M    'P1'
_symmetry_Int_Tables_number       1
_symmetry_cell_setting            triclinic
loop_
_symmetry_equiv_pos_as_xyz
  x,y,z
_cell_length_a                    34.02682727564228
_cell_length_b                    34.02682727564228
_cell_length_c                    34.02682727564228
_cell_angle_alpha                 90.0
_cell_angle_beta                  90.0
_cell_angle_gamma                 90.0
loop_
_atom_site_label
_atom_site_type_symbol
_atom_site_fract_x
_atom_site_fract_y
_atom_site_fract_z
_atom_site_charge
Zn1       Zn   -0.0329504714   -0.0329504714    0.0329504714          1.4972
Zn2       Zn    0.0329504714    0.0329504714    0.0329504714          1.4936
Zn3       Zn    0.0329504714   -0.0329504714   -0.0329504714          1.4911
Zn4       Zn   -0.0329504714    0.0329504714   -0.0329504714          1.4948
O5         O    0.0000000000    0.0000000000    0.0000000000         -2.3008
O6         O   -0.0242161866   -0.0242161866    0.0880658069         -1.2071
O7         O    0.0880658069    0.0242161866    0.0242161866         -1.2053
O8         O    0.0242161866   -0.0880658069   -0.0242161866         -1.2005
O9         O    0.0242161866    0.0242161866    0.0880658069         -1.2073
O10        O   -0.0242161866   -0.0880658069    0.0242161866         -1.2033
O11        O    0.0880658069   -0.0242161866   -0.0242161866         -1.2091
O12        O   -0.0242161866    0.0242161866   -0.0880658069          -1.203
O13        O    0.0242161866    0.0880658069    0.0242161866         -1.2106
O14        O    0.0242161866   -0.0242161866   -0.0880658069         -1.2045
O15        O   -0.0242161866    0.0880658069   -0.0242161866         -1.2092
O16        O   -0.0880658069    0.0242161866   -0.0242161866         -1.2083
O17        O   -0.0880658069   -0.0242161866    0.0242161866         -1.2061
C18        C   -0.0000000000   -0.0000000000    0.1052933902          0.3117
C19        C    0.1052933902   -0.0000000000   -0.0000000000          0.3166
C20        C   -0.0000000000   -0.1052933902    0.0000000000          0.3062
C21        C    0.0000000000    0.0000000000   -0.1052933902            0.31
C22        C    0.0000000000    0.1052933902   -0.0000000000          0.3214
C23        C   -0.1052933902    0.0000000000    0.0000000000          0.3119
Zn24      Zn    1.0329504714   -0.0329504714    0.5329504714          1.4972
Zn25      Zn    1.0329504714    0.0329504714    0.4670495286          1.4936
Zn26      Zn    0.9670495286   -0.0329504714    0.4670495286          1.4911
Zn27      Zn    0.9670495286    0.0329504714    0.5329504714          1.4948
O28        O    1.0000000000    0.0000000000    0.5000000000         -2.3008
O29        O    1.0880658069   -0.0242161866    0.5242161866         -1.2071
O30        O    1.0242161866    0.0242161866    0.4119341931         -1.2053
O31        O    0.9757838134   -0.0880658069    0.4757838134         -1.2005
O32        O    1.0880658069    0.0242161866    0.4757838134         -1.2073
O33        O    1.0242161866   -0.0880658069    0.5242161866         -1.2033
O34        O    0.9757838134   -0.0242161866    0.4119341931         -1.2091
O35        O    0.9119341931    0.0242161866    0.5242161866          -1.203
O36        O    1.0242161866    0.0880658069    0.4757838134         -1.2106
O37        O    0.9119341931   -0.0242161866    0.4757838134         -1.2045
O38        O    0.9757838134    0.0880658069    0.5242161866         -1.2092
O39        O    0.9757838134    0.0242161866    0.5880658069         -1.2083
O40        O    1.0242161866   -0.0242161866    0.5880658069         -1.2061
C41        C    1.1052933902    0.0000000000    0.5000000000          0.3117
C42        C    1.0000000000    0.0000000000    0.3947066098          0.3166
C43        C    1.0000000000   -0.1052933902    0.5000000000          0.3062
C44        C    0.8947066098    0.0000000000    0.5000000000            0.31
C45        C    1.0000000000    0.1052933902    0.5000000000          0.3214
C46        C    1.0000000000    0.0000000000    0.6052933902          0.3119
Zn47      Zn    1.0329504714    0.4670495286   -0.0329504714          1.4972
Zn48      Zn    0.9670495286    0.4670495286    0.0329504714          1.4936
Zn49      Zn    1.0329504714    0.5329504714    0.0329504714          1.4911
Zn50      Zn    0.9670495286    0.5329504714   -0.0329504714          1.4948
O51        O    1.0000000000    0.5000000000    0.0000000000         -2.3008
O52        O    1.0242161866    0.4119341931   -0.0242161866         -1.2071
O53        O    0.9757838134    0.4757838134    0.0880658069         -1.2053
O54        O    1.0880658069    0.5242161866    0.0242161866         -1.2005
O55        O    0.9757838134    0.4119341931    0.0242161866         -1.2073
O56        O    1.0880658069    0.4757838134   -0.0242161866         -1.2033
O57        O    1.0242161866    0.5242161866    0.0880658069         -1.2091
O58        O    0.9757838134    0.5880658069   -0.0242161866          -1.203
O59        O    0.9119341931    0.4757838134    0.0242161866         -1.2106
O60        O    1.0242161866    0.5880658069    0.0242161866         -1.2045
O61        O    0.9119341931    0.5242161866   -0.0242161866         -1.2092
O62        O    0.9757838134    0.5242161866   -0.0880658069         -1.2083
O63        O    1.0242161866    0.4757838134   -0.0880658069         -1.2061
C64        C    1.0000000000    0.3947066098    0.0000000000          0.3117
C65        C    1.0000000000    0.5000000000    0.1052933902          0.3166
C66        C    1.1052933902    0.5000000000    0.0000000000          0.3062
C67        C    1.0000000000    0.6052933902    0.0000000000            0.31
C68        C    0.8947066098    0.5000000000    0.0000000000          0.3214
C69        C    1.0000000000    0.5000000000   -0.1052933902          0.3119
Zn70      Zn    0.9670495286    0.4670495286    0.5329504714          1.4972
Zn71      Zn    1.0329504714    0.4670495286    0.4670495286          1.4936
Zn72      Zn    0.9670495286    0.5329504714    0.4670495286          1.4911
Zn73      Zn    1.0329504714    0.5329504714    0.5329504714          1.4948
O74        O    1.0000000000    0.5000000000    0.5000000000         -2.3008
O75        O    0.9757838134    0.4119341931    0.5242161866         -1.2071
O76        O    1.0242161866    0.4757838134    0.4119341931         -1.2053
O77        O    0.9119341931    0.5242161866    0.4757838134         -1.2005
O78        O    1.0242161866    0.4119341931    0.4757838134         -1.2073
O79        O    0.9119341931    0.4757838134    0.5242161866         -1.2033
O80        O    0.9757838134    0.5242161866    0.4119341931         -1.2091
O81        O    1.0242161866    0.5880658069    0.5242161866          -1.203
O82        O    1.0880658069    0.4757838134    0.4757838134         -1.2106
O83        O    0.9757838134    0.5880658069    0.4757838134         -1.2045
O84        O    1.0880658069    0.5242161866    0.5242161866         -1.2092
O85        O    1.0242161866    0.5242161866    0.5880658069         -1.2083
O86        O    0.9757838134    0.4757838134    0.5880658069         -1.2061
C87        C    1.0000000000    0.3947066098    0.5000000000          0.3117
C88        C    1.0000000000    0.5000000000    0.3947066098          0.3166
C89        C    0.8947066098    0.5000000000    0.5000000000          0.3062
C90        C    1.0000000000    0.6052933902    0.5000000000            0.31
C91        C    1.1052933902    0.5000000000    0.5000000000          0.3214
C92        C    1.0000000000    0.5000000000    0.6052933902          0.3119
Zn93      Zn    0.4670495286    0.9670495286   -0.0329504714          1.4972
Zn94      Zn    0.4670495286    1.0329504714    0.0329504714          1.4936
Zn95      Zn    0.5329504714    0.9670495286    0.0329504714          1.4911
Zn96      Zn    0.5329504714    1.0329504714   -0.0329504714          1.4948
O97        O    0.5000000000    1.0000000000    0.0000000000         -2.3008
O98        O    0.4119341931    0.9757838134   -0.0242161866         -1.2071
O99        O    0.4757838134    1.0242161866    0.0880658069         -1.2053
O100       O    0.5242161866    0.9119341931    0.0242161866         -1.2005
O101       O    0.4119341931    1.0242161866    0.0242161866         -1.2073
O102       O    0.4757838134    0.9119341931   -0.0242161866         -1.2033
O103       O    0.5242161866    0.9757838134    0.0880658069         -1.2091
O104       O    0.5880658069    1.0242161866   -0.0242161866          -1.203
O105       O    0.4757838134    1.0880658069    0.0242161866         -1.2106
O106       O    0.5880658069    0.9757838134    0.0242161866         -1.2045
O107       O    0.5242161866    1.0880658069   -0.0242161866         -1.2092
O108       O    0.5242161866    1.0242161866   -0.0880658069         -1.2083
O109       O    0.4757838134    0.9757838134   -0.0880658069         -1.2061
C110       C    0.3947066098    1.0000000000    0.0000000000          0.3117
C111       C    0.5000000000    1.0000000000    0.1052933902          0.3166
C112       C    0.5000000000    0.8947066098    0.0000000000          0.3062
C113       C    0.6052933902    1.0000000000    0.0000000000            0.31
C114       C    0.5000000000    1.1052933902    0.0000000000          0.3214
C115       C    0.5000000000    1.0000000000   -0.1052933902          0.3119
Zn116     Zn    0.5329504714    0.9670495286    0.4670495286          1.4972
Zn117     Zn    0.4670495286    1.0329504714    0.4670495286          1.4936
Zn118     Zn    0.4670495286    0.9670495286    0.5329504714          1.4911
Zn119     Zn    0.5329504714    1.0329504714    0.5329504714          1.4948
O120       O    0.5000000000    1.0000000000    0.5000000000         -2.3008
O121       O    0.5242161866    0.9757838134    0.4119341931         -1.2071
O122       O    0.4119341931    1.0242161866    0.4757838134         -1.2053
O123       O    0.4757838134    0.9119341931    0.5242161866         -1.2005
O124       O    0.4757838134    1.0242161866    0.4119341931         -1.2073
O125       O    0.5242161866    0.9119341931    0.4757838134         -1.2033
O126       O    0.4119341931    0.9757838134    0.5242161866         -1.2091
O127       O    0.5242161866    1.0242161866    0.5880658069          -1.203
O128       O    0.4757838134    1.0880658069    0.4757838134         -1.2106
O129       O    0.4757838134    0.9757838134    0.5880658069         -1.2045
O130       O    0.5242161866    1.0880658069    0.5242161866         -1.2092
O131       O    0.5880658069    1.0242161866    0.5242161866         -1.2083
O132       O    0.5880658069    0.9757838134    0.4757838134         -1.2061
C133       C    0.5000000000    1.0000000000    0.3947066098          0.3117
C134       C    0.3947066098    1.0000000000    0.5000000000          0.3166
C135       C    0.5000000000    0.8947066098    0.5000000000          0.3062
C136       C    0.5000000000    1.0000000000    0.6052933902            0.31
C137       C    0.5000000000    1.1052933902    0.5000000000          0.3214
C138       C    0.6052933902    1.0000000000    0.5000000000          0.3119
Zn139     Zn    0.4670495286    0.5329504714   -0.0329504714          1.4972
Zn140     Zn    0.4670495286    0.4670495286    0.0329504714          1.4936
Zn141     Zn    0.5329504714    0.4670495286   -0.0329504714          1.4911
Zn142     Zn    0.5329504714    0.5329504714    0.0329504714          1.4948
O143       O    0.5000000000    0.5000000000    0.0000000000         -2.3008
O144       O    0.4119341931    0.5242161866   -0.0242161866         -1.2071
O145       O    0.4757838134    0.4119341931    0.0242161866         -1.2053
O146       O    0.5242161866    0.4757838134   -0.0880658069         -1.2005
O147       O    0.4119341931    0.4757838134    0.0242161866         -1.2073
O148       O    0.4757838134    0.5242161866   -0.0880658069         -1.2033
O149       O    0.5242161866    0.4119341931   -0.0242161866         -1.2091
O150       O    0.5880658069    0.5242161866    0.0242161866          -1.203
O151       O    0.4757838134    0.4757838134    0.0880658069         -1.2106
O152       O    0.5880658069    0.4757838134   -0.0242161866         -1.2045
O153       O    0.5242161866    0.5242161866    0.0880658069         -1.2092
O154       O    0.5242161866    0.5880658069    0.0242161866         -1.2083
O155       O    0.4757838134    0.5880658069   -0.0242161866         -1.2061
C156       C    0.3947066098    0.5000000000    0.0000000000          0.3117
C157       C    0.5000000000    0.3947066098    0.0000000000          0.3166
C158       C    0.5000000000    0.5000000000   -0.1052933902          0.3062
C159       C    0.6052933902    0.5000000000    0.0000000000            0.31
C160       C    0.5000000000    0.5000000000    0.1052933902          0.3214
C161       C    0.5000000000    0.6052933902    0.0000000000          0.3119
Zn162     Zn    0.5329504714    0.4670495286    0.5329504714          1.4972
Zn163     Zn    0.4670495286    0.4670495286    0.4670495286          1.4936
Zn164     Zn    0.4670495286    0.5329504714    0.5329504714          1.4911
Zn165     Zn    0.5329504714    0.5329504714    0.4670495286          1.4948
O166       O    0.5000000000    0.5000000000    0.5000000000         -2.3008
O167       O    0.5242161866    0.4119341931    0.5242161866         -1.2071
O168       O    0.4119341931    0.4757838134    0.4757838134         -1.2053
O169       O    0.4757838134    0.5242161866    0.5880658069         -1.2005
O170       O    0.4757838134    0.4119341931    0.4757838134         -1.2073
O171       O    0.5242161866    0.4757838134    0.5880658069         -1.2033
O172       O    0.4119341931    0.5242161866    0.5242161866         -1.2091
O173       O    0.5242161866    0.5880658069    0.4757838134          -1.203
O174       O    0.4757838134    0.4757838134    0.4119341931         -1.2106
O175       O    0.4757838134    0.5880658069    0.5242161866         -1.2045
O176       O    0.5242161866    0.5242161866    0.4119341931         -1.2092
O177       O    0.5880658069    0.5242161866    0.4757838134         -1.2083
O178       O    0.5880658069    0.4757838134    0.5242161866         -1.2061
C179       C    0.5000000000    0.3947066098    0.5000000000          0.3117
C180       C    0.3947066098    0.5000000000    0.5000000000          0.3166
C181       C    0.5000000000    0.5000000000    0.6052933902          0.3062
C182       C    0.5000000000    0.6052933902    0.5000000000            0.31
C183       C    0.5000000000    0.5000000000    0.3947066098          0.3214
C184       C    0.6052933902    0.5000000000    0.5000000000          0.3119
C783       C    0.5000000000    0.5000000000   -0.3494482028           0.528
C784       C    0.4651965473    0.4967232561   -0.3314224357           0.533
C785       C    0.4606305444    0.4998284731   -0.2923156746          0.5332
C786       C    0.4934570663    0.5051568227   -0.2699846836          0.5294
C787       C    0.5279486140    0.5119253321   -0.2886288486          0.5211
C788       C    0.5312151932    0.5096869575   -0.3274623875          0.5201
C789       C    0.4941833775    0.5040342920   -0.2300933296          0.5336
C790       C    0.4191141772    0.4921980132   -0.2753077510         -0.4577
H791       H    0.4398964656    0.4898726496   -0.3494671526         -0.4616
Br792     Br    0.5818094411    0.5227644245   -0.3480474378          0.5054
F793       F    0.5604072360    0.5243187332   -0.2693813277          0.5104
C794       C    0.3874259135    0.4737688802   -0.3021990062         -0.4419
H795       H    0.3796482887    0.4937023807   -0.3261293169          0.5374
H796       H    0.3972033884    0.4457604160   -0.3144021336         -0.4164
H797       H    0.3606504559    0.4684896618   -0.2852657124         -0.4352
H798       H    0.4064795010    0.5201318460   -0.2659211487          0.5167
H799       H    0.4212220104    0.4730791856   -0.2496039486         -0.4376
C800       C    0.4657284561    0.5181016970   -0.2066482443          0.5224
C801       C    0.4686310926    0.5164062557   -0.1676234975          0.5271
C802       C    0.5000000000    0.5000000000   -0.1505517972         -0.4565
C803       C    0.5280858802    0.4849985382   -0.1732336384         -0.4444
C804       C    0.5250422348    0.4870163196   -0.2119506112         -0.4493
H805       H    0.4451538148    0.5291778444   -0.1500989474          0.5166
H806       H    0.4405151477    0.5335464287   -0.2182188735          0.5072
H807       H    0.5483866081    0.4726871518   -0.2283483127         -0.4373
H808       H    0.5538536795    0.4708322852   -0.1607187476         -0.4303
C757       C    0.5000000000    0.5000000000    0.1505517972           0.528
C758       C    0.4651965473    0.4967232561    0.1685775643           0.533
C759       C    0.4606305444    0.4998284731    0.2076843254          0.5332
C760       C    0.4934570663    0.5051568227    0.2300153164          0.5294
C761       C    0.5279486140    0.5119253321    0.2113711514          0.5211
C762       C    0.5312151932    0.5096869575    0.1725376125          0.5201
C763       C    0.4941833775    0.5040342920    0.2699066704          0.5336
C764       C    0.4191141772    0.4921980132    0.2246922490         -0.4577
H765       H    0.4398964656    0.4898726496    0.1505328474         -0.4616
Br766     Br    0.5818094411    0.5227644245    0.1519525622          0.5054
F767       F    0.5604072360    0.5243187332    0.2306186723          0.5104
C768       C    0.3874259135    0.4737688802    0.1978009938         -0.4419
H769       H    0.3796482887    0.4937023807    0.1738706831          0.5374
H770       H    0.3972033884    0.4457604160    0.1855978664         -0.4164
H771       H    0.3606504559    0.4684896618    0.2147342876         -0.4352
H772       H    0.4064795010    0.5201318460    0.2340788513          0.5167
H773       H    0.4212220104    0.4730791856    0.2503960514         -0.4376
C774       C    0.4657284561    0.5181016970    0.2933517557          0.5224
C775       C    0.4686310926    0.5164062557    0.3323765025          0.5271
C776       C    0.5000000000    0.5000000000    0.3494482028         -0.4565
C777       C    0.5280858802    0.4849985382    0.3267663616         -0.4444
C778       C    0.5250422348    0.4870163196    0.2880493888         -0.4493
H779       H    0.4451538148    0.5291778444    0.3499010526          0.5166
H780       H    0.4405151477    0.5335464287    0.2817811265          0.5072
H781       H    0.5483866081    0.4726871518    0.2716516873         -0.4373
H782       H    0.5538536795    0.4708322852    0.3392812524         -0.4303
C731       C    0.5000000000    0.8494482028    0.5000000000           0.528
C732       C    0.4688506705    0.8314224357    0.5158662107           0.533
C733       C    0.4666567598    0.7923156746    0.5209335089          0.5332
C734       C    0.4972348039    0.7699846836    0.5078585299          0.5294
C735       C    0.5299901877    0.7886288486    0.4951084548          0.5211
C736       C    0.5315507131    0.8274623875    0.4914690014          0.5201
C737       C    0.4972472434    0.7300933296    0.5065215750          0.5336
C738       C    0.4275067325    0.7753077510    0.5367166651         -0.4577
H739       H    0.4438144354    0.8494671526    0.5236258418         -0.4616
Br740     Br    0.5812842339    0.8480474378    0.4754260909          0.5054
F741       F    0.5640401277    0.7693813277    0.4881975849          0.5104
C742       C    0.3908759096    0.8021990062    0.5381173122         -0.4419
H743       H    0.3949793179    0.8261293169    0.5591172629          0.5374
H744       H    0.3841382425    0.8144021336    0.5092265364         -0.4164
H745       H    0.3654348936    0.7852657124    0.5479940515         -0.4352
H746       H    0.4317912525    0.7659211487    0.5670741509          0.5167
H747       H    0.4190507989    0.7496039486    0.5194403890         -0.4376
C748       C    0.4807459232    0.7066482443    0.5336376378          0.5224
C749       C    0.4822897491    0.6676234975    0.5306516002          0.5271
C750       C    0.5000000000    0.6505517972    0.5000000000         -0.4565
C751       C    0.5156895350    0.6732336384    0.4722926180         -0.4444
C752       C    0.5141991938    0.7119506112    0.4756264000         -0.4493
H753       H    0.4692987626    0.6500989474    0.5540081907          0.5166
H754       H    0.4677198860    0.7182188735    0.5601814321          0.5072
H755       H    0.5262440024    0.7283483127    0.4510254366         -0.4373
H756       H    0.5298683913    0.6607187476    0.4465317516         -0.4303
C705       C    0.5000000000    1.1505517972    0.5000000000           0.528
C706       C    0.4651965473    1.1685775643    0.5032767439           0.533
C707       C    0.4606305444    1.2076843254    0.5001715269          0.5332
C708       C    0.4934570663    1.2300153164    0.4948431773          0.5294
C709       C    0.5279486140    1.2113711514    0.4880746679          0.5211
C710       C    0.5312151932    1.1725376125    0.4903130425          0.5201
C711       C    0.4941833775    1.2699066704    0.4959657080          0.5336
C712       C    0.4191141772    1.2246922490    0.5078019868         -0.4577
H713       H    0.4398964656    1.1505328474    0.5101273504         -0.4616
Br714     Br    0.5818094411    1.1519525622    0.4772355755          0.5054
F715       F    0.5604072360    1.2306186723    0.4756812668          0.5104
C716       C    0.3874259135    1.1978009938    0.5262311198         -0.4419
H717       H    0.3796482887    1.1738706831    0.5062976193          0.5374
H718       H    0.3972033884    1.1855978664    0.5542395840         -0.4164
H719       H    0.3606504559    1.2147342876    0.5315103382         -0.4352
H720       H    0.4064795010    1.2340788513    0.4798681540          0.5167
H721       H    0.4212220104    1.2503960514    0.5269208144         -0.4376
C722       C    0.4657284561    1.2933517557    0.4818983030          0.5224
C723       C    0.4686310926    1.3323765025    0.4835937443          0.5271
C724       C    0.5000000000    1.3494482028    0.5000000000         -0.4565
C725       C    0.5280858802    1.3267663616    0.5150014618         -0.4444
C726       C    0.5250422348    1.2880493888    0.5129836804         -0.4493
H727       H    0.4451538148    1.3499010526    0.4708221556          0.5166
H728       H    0.4405151477    1.2817811265    0.4664535713          0.5072
H729       H    0.5483866081    1.2716516873    0.5273128482         -0.4373
H730       H    0.5538536795    1.3392812524    0.5291677148         -0.4303
C679       C    0.5000000000    0.6505517972    0.0000000000           0.528
C680       C    0.5029119084    0.6685775643   -0.0348358746           0.533
C681       C    0.5067736405    0.7076843254   -0.0387827443          0.5332
C682       C    0.5062298026    0.7300153164   -0.0055310361          0.5294
C683       C    0.5068099422    0.7113711514    0.0296135654          0.5211
C684       C    0.5040306108    0.6725376125    0.0324342352          0.5201
C685       C    0.5049967841    0.7699066704   -0.0050140560          0.5336
C686       C    0.5065838272    0.7246922490   -0.0809940772         -0.4577
H687       H    0.5006301188    0.6505328474   -0.0609475268         -0.4616
Br688     Br    0.5079812617    0.6519525622    0.0845417243          0.5054
F689       F    0.5132853155    0.7306186723    0.0637490027          0.5104
C690       C    0.4940314616    0.6978009938   -0.1154355800         -0.4419
H691       H    0.5150241043    0.6738706831   -0.1195762130          0.5374
H692       H    0.4647377408    0.6855978664   -0.1107503900         -0.4164
H693       H    0.4935566054    0.7147342876   -0.1427223862         -0.4352
H694       H    0.5363079300    0.7340788513   -0.0885048540          0.5167
H695       H    0.4873929117    0.7503960514   -0.0822907237         -0.4376
C696       C    0.5238615299    0.7933517557   -0.0305423893          0.5224
C697       C    0.5216808019    0.8323765025   -0.0279842171          0.5271
C698       C    0.5000000000    0.8494482028    0.0000000000         -0.4565
C699       C    0.4802809123    0.8267663616    0.0250003621         -0.4444
C700       C    0.4828037948    0.7880493888    0.0223602328         -0.4493
H701       H    0.5383922717    0.8499010526   -0.0488414180          0.5166
H702       H    0.5435103867    0.7817811265   -0.0526370286          0.5072
H703       H    0.4645825914    0.7716516873    0.0428119456         -0.4373
H704       H    0.4617927193    0.8392812524    0.0478662520         -0.4303
C653       C    0.5000000000    1.1505517972    0.0000000000           0.528
C654       C    0.5037385510    1.1685775643   -0.0347568785           0.533
C655       C    0.5076929444    1.2076843254   -0.0386109060          0.5332
C656       C    0.5063594248    1.2300153164   -0.0053814977          0.5294
C657       C    0.5061046033    1.2113711514    0.0297669681          0.5211
C658       C    0.5032590560    1.1725376125    0.0325208239          0.5201
C659       C    0.5051144743    1.2699066704   -0.0048939516          0.5336
C660       C    0.5085058397    1.2246922490   -0.0808148378         -0.4577
H661       H    0.5020776410    1.1505328474   -0.0609153633         -0.4616
Br662     Br    0.5059708716    1.1519525622    0.0847074517          0.5054
F663       F    0.5117673230    1.2306186723    0.0640465851          0.5104
C664       C    0.4967751124    1.1978009938   -0.1155447822         -0.4419
H665       H    0.5178601854    1.1738706831   -0.1191856040          0.5374
H666       H    0.4673783683    1.1855978664   -0.1115567343         -0.4164
H667       H    0.4969485396    1.2147342876   -0.1428351688         -0.4352
H668       H    0.5383999611    1.2340788513   -0.0876174523          0.5167
H669       H    0.4893511384    1.2503960514   -0.0825669646         -0.4376
C670       C    0.5245802776    1.2933517557   -0.0299669836          0.5224
C671       C    0.5223394000    1.3323765025   -0.0274613326          0.5271
C672       C    0.5000000000    1.3494482028    0.0000000000         -0.4565
C673       C    0.4796926369    1.3267663616    0.0245249165         -0.4444
C674       C    0.4822775192    1.2880493888    0.0219454587         -0.4493
H675       H    0.5395415804    1.3499010526   -0.0479156974          0.5166
H676       H    0.5447484093    1.2817811265   -0.0515886654          0.5072
H677       H    0.4635756627    1.2716516873    0.0419585888         -0.4373
H678       H    0.4606665218    1.3392812524    0.0469452007         -0.4303
C627       C    0.5000000000    1.0000000000   -0.3494482028           0.528
C628       C    0.5032767439    0.9651965473   -0.3314224357           0.533
C629       C    0.5001715269    0.9606305444   -0.2923156746          0.5332
C630       C    0.4948431773    0.9934570663   -0.2699846836          0.5294
C631       C    0.4880746679    1.0279486140   -0.2886288486          0.5211
C632       C    0.4903130425    1.0312151932   -0.3274623875          0.5201
C633       C    0.4959657080    0.9941833775   -0.2300933296          0.5336
C634       C    0.5078019868    0.9191141772   -0.2753077510         -0.4577
H635       H    0.5101273504    0.9398964656   -0.3494671526         -0.4616
Br636     Br    0.4772355755    1.0818094411   -0.3480474378          0.5054
F637       F    0.4756812668    1.0604072360   -0.2693813277          0.5104
C638       C    0.5262311198    0.8874259135   -0.3021990062         -0.4419
H639       H    0.5062976193    0.8796482887   -0.3261293169          0.5374
H640       H    0.5542395840    0.8972033884   -0.3144021336         -0.4164
H641       H    0.5315103382    0.8606504559   -0.2852657124         -0.4352
H642       H    0.4798681540    0.9064795010   -0.2659211487          0.5167
H643       H    0.5269208144    0.9212220104   -0.2496039486         -0.4376
C644       C    0.4818983030    0.9657284561   -0.2066482443          0.5224
C645       C    0.4835937443    0.9686310926   -0.1676234975          0.5271
C646       C    0.5000000000    1.0000000000   -0.1505517972         -0.4565
C647       C    0.5150014618    1.0280858802   -0.1732336384         -0.4444
C648       C    0.5129836804    1.0250422348   -0.2119506112         -0.4493
H649       H    0.4708221556    0.9451538148   -0.1500989474          0.5166
H650       H    0.4664535713    0.9405151477   -0.2182188735          0.5072
H651       H    0.5273128482    1.0483866081   -0.2283483127         -0.4373
H652       H    0.5291677148    1.0538536795   -0.1607187476         -0.4303
C601       C    0.5000000000    1.0000000000    0.1505517972           0.528
C602       C    0.5348034527    1.0032767439    0.1685775643           0.533
C603       C    0.5393694556    1.0001715269    0.2076843254          0.5332
C604       C    0.5065429337    0.9948431773    0.2300153164          0.5294
C605       C    0.4720513860    0.9880746679    0.2113711514          0.5211
C606       C    0.4687848068    0.9903130425    0.1725376125          0.5201
C607       C    0.5058166225    0.9959657080    0.2699066704          0.5336
C608       C    0.5808858228    1.0078019868    0.2246922490         -0.4577
H609       H    0.5601035344    1.0101273504    0.1505328474         -0.4616
Br610     Br    0.4181905589    0.9772355755    0.1519525622          0.5054
F611       F    0.4395927640    0.9756812668    0.2306186723          0.5104
C612       C    0.6125740865    1.0262311198    0.1978009938         -0.4419
H613       H    0.6203517113    1.0062976193    0.1738706831          0.5374
H614       H    0.6027966116    1.0542395840    0.1855978664         -0.4164
H615       H    0.6393495441    1.0315103382    0.2147342876         -0.4352
H616       H    0.5935204990    0.9798681540    0.2340788513          0.5167
H617       H    0.5787779896    1.0269208144    0.2503960514         -0.4376
C618       C    0.5342715439    0.9818983030    0.2933517557          0.5224
C619       C    0.5313689074    0.9835937443    0.3323765025          0.5271
C620       C    0.5000000000    1.0000000000    0.3494482028         -0.4565
C621       C    0.4719141198    1.0150014618    0.3267663616         -0.4444
C622       C    0.4749577652    1.0129836804    0.2880493888         -0.4493
H623       H    0.5548461852    0.9708221556    0.3499010526          0.5166
H624       H    0.5594848523    0.9664535713    0.2817811265          0.5072
H625       H    0.4516133919    1.0273128482    0.2716516873         -0.4373
H626       H    0.4461463205    1.0291677148    0.3392812524         -0.4303
C575       C    0.8494482028    0.5000000000    0.5000000000           0.528
C576       C    0.8314224357    0.4800246116    0.5286879979           0.533
C577       C    0.7923156746    0.4747049747    0.5301686120          0.5332
C578       C    0.7699846836    0.4918372393    0.5016649743          0.5294
C579       C    0.7886288486    0.5089452931    0.4709600223          0.5211
C580       C    0.8274623875    0.5127639053    0.4699116608          0.5201
C581       C    0.7300933296    0.4931633440    0.5018354137          0.5336
C582       C    0.7753077510    0.4537181632    0.5667935544         -0.4577
H583       H    0.8494671526    0.4689153636    0.5524284603         -0.4616
Br584     Br    0.8480474378    0.5354547992    0.4228380865          0.5054
F585       F    0.7693813277    0.5204459238    0.4381744458          0.5104
C586       C    0.8021990062    0.4473232204    0.6028890348         -0.4419
H587       H    0.8261293169    0.4270813449    0.5959534480          0.5374
H588       H    0.8144021336    0.4750217416    0.6135128293         -0.4164
H589       H    0.7852657124    0.4340614050    0.6267410689         -0.4352
H590       H    0.7659211487    0.4242313549    0.5583993783          0.5167
H591       H    0.7496039486    0.4696763288    0.5775317796         -0.4376
C592       C    0.7066482443    0.4640460991    0.5144750532          0.5224
C593       C    0.6676234975    0.4672151467    0.5133539123          0.5271
C594       C    0.6505517972    0.5000000000    0.5000000000         -0.4565
C595       C    0.6732336384    0.5295920417    0.4882453586         -0.4444
C596       C    0.7119506112    0.5260858257    0.4892659801         -0.4493
H597       H    0.6500989474    0.4423019456    0.5230300923          0.5166
H598       H    0.7182188735    0.4359708229    0.5237502632          0.5072
H599       H    0.7283483127    0.5521023752    0.4806972018         -0.4373
H600       H    0.6607187476    0.5570493305    0.4777211251         -0.4303
C549       C    1.1505517972    0.5000000000    0.5000000000           0.528
C550       C    1.1685775643    0.5286879979    0.4800246116           0.533
C551       C    1.2076843254    0.5301686120    0.4747049747          0.5332
C552       C    1.2300153164    0.5016649743    0.4918372393          0.5294
C553       C    1.2113711514    0.4709600223    0.5089452931          0.5211
C554       C    1.1725376125    0.4699116608    0.5127639053          0.5201
C555       C    1.2699066704    0.5018354137    0.4931633440          0.5336
C556       C    1.2246922490    0.5667935544    0.4537181632         -0.4577
H557       H    1.1505328474    0.5524284603    0.4689153636         -0.4616
Br558     Br    1.1519525622    0.4228380865    0.5354547992          0.5054
F559       F    1.2306186723    0.4381744458    0.5204459238          0.5104
C560       C    1.1978009938    0.6028890348    0.4473232204         -0.4419
H561       H    1.1738706831    0.5959534480    0.4270813449          0.5374
H562       H    1.1855978664    0.6135128293    0.4750217416         -0.4164
H563       H    1.2147342876    0.6267410689    0.4340614050         -0.4352
H564       H    1.2340788513    0.5583993783    0.4242313549          0.5167
H565       H    1.2503960514    0.5775317796    0.4696763288         -0.4376
C566       C    1.2933517557    0.5144750532    0.4640460991          0.5224
C567       C    1.3323765025    0.5133539123    0.4672151467          0.5271
C568       C    1.3494482028    0.5000000000    0.5000000000         -0.4565
C569       C    1.3267663616    0.4882453586    0.5295920417         -0.4444
C570       C    1.2880493888    0.4892659801    0.5260858257         -0.4493
H571       H    1.3499010526    0.5230300923    0.4423019456          0.5166
H572       H    1.2817811265    0.5237502632    0.4359708229          0.5072
H573       H    1.2716516873    0.4806972018    0.5521023752         -0.4373
H574       H    1.3392812524    0.4777211251    0.5570493305         -0.4303
C523       C    0.8494482028    0.5000000000    0.0000000000           0.528
C524       C    0.8314224357    0.4652797665   -0.0040648194           0.533
C525       C    0.7923156746    0.4614630483   -0.0080552351          0.5332
C526       C    0.7699846836    0.4946784668   -0.0064096869          0.5294
C527       C    0.7886288486    0.5298229891   -0.0058247655          0.5211
C528       C    0.8274623875    0.5325499983   -0.0029534798          0.5201
C529       C    0.7300933296    0.4951542989   -0.0051602122          0.5336
C530       C    0.7753077510    0.4192686125   -0.0092644699         -0.4577
H531       H    0.8494671526    0.4391068364   -0.0026496607         -0.4616
Br532     Br    0.8480474378    0.5847597935   -0.0051750439          0.5054
F533       F    0.7693813277    0.5641542779   -0.0111652845          0.5104
C534       C    0.8021990062    0.3844300261    0.0021395597         -0.4419
H535       H    0.8261293169    0.3809873938   -0.0189787776          0.5374
H536       H    0.8144021336    0.3881418066    0.0315724626         -0.4164
H537       H    0.7852657124    0.3571424719    0.0017098314         -0.4352
H538       H    0.7659211487    0.4127470609   -0.0392211623          0.5167
H539       H    0.7496039486    0.4173366639    0.0098729308         -0.4376
C540       C    0.7066482443    0.4702651937   -0.0248606405          0.5224
C541       C    0.6676234975    0.4727496881   -0.0225963290          0.5271
C542       C    0.6505517972    0.5000000000    0.0000000000         -0.4565
C543       C    0.6732336384    0.5243331100    0.0205368032         -0.4444
C544       C    0.7119506112    0.5217780429    0.0179278088         -0.4493
H545       H    0.6500989474    0.4524577867   -0.0399898561          0.5166
H546       H    0.7182188735    0.4488338828   -0.0452309515          0.5072
H547       H    0.7283483127    0.5416146443    0.0368168019         -0.4373
H548       H    0.6607187476    0.5465737139    0.0397726483         -0.4303
C497       C    1.1505517972    0.5000000000    0.0000000000           0.528
C498       C    1.1685775643    0.4772365828    0.0265300623           0.533
C499       C    1.2076843254    0.4771370092    0.0320510079          0.5332
C500       C    1.2300153164    0.5004347875    0.0083194808          0.5294
C501       C    1.2113711514    0.5258696386   -0.0159405260          0.5211
C502       C    1.1725376125    0.5259271057   -0.0199000157          0.5201
C503       C    1.2699066704    0.4999373089    0.0070784659          0.5336
C504       C    1.2246922490    0.4469437456    0.0615501518         -0.4577
H505       H    1.1505328474    0.4570397392    0.0432367213         -0.4616
Br506     Br    1.1519525622    0.5658080132   -0.0536685111          0.5054
F507       F    1.2306186723    0.5547245602   -0.0352938729          0.5104
C508       C    1.1978009938    0.4136045344    0.0767907554         -0.4419
H509       H    1.1738706831    0.4253936706    0.0946471872          0.5374
H510       H    1.1855978664    0.3963754519    0.0526405628         -0.4164
H511       H    1.2147342876    0.3938393782    0.0956092005         -0.4352
H512       H    1.2340788513    0.4624627879    0.0879905260          0.5167
H513       H    1.2503960514    0.4325474493    0.0487940088         -0.4376
C514       C    1.2933517557    0.4950017147    0.0384347147          0.5224
C515       C    1.3323765025    0.4952924965    0.0350857947          0.5271
C516       C    1.3494482028    0.5000000000    0.0000000000         -0.4565
C517       C    1.3267663616    0.5039598218   -0.0315939921         -0.4444
C518       C    1.2880493888    0.5038508842   -0.0279438754         -0.4493
H519       H    1.3499010526    0.4921716615    0.0616292767          0.5166
H520       H    1.2817811265    0.4930618433    0.0679387409          0.5072
H521       H    1.2716516873    0.5056230553   -0.0552778145         -0.4373
H522       H    1.3392812524    0.5072637647   -0.0608129271         -0.4303
C471       C    1.0000000000    0.5000000000   -0.3494482028           0.528
C472       C    0.9651965473    0.4967232561   -0.3314224357           0.533
C473       C    0.9606305444    0.4998284731   -0.2923156746          0.5332
C474       C    0.9934570663    0.5051568227   -0.2699846836          0.5294
C475       C    1.0279486140    0.5119253321   -0.2886288486          0.5211
C476       C    1.0312151932    0.5096869575   -0.3274623875          0.5201
C477       C    0.9941833775    0.5040342920   -0.2300933296          0.5336
C478       C    0.9191141772    0.4921980132   -0.2753077510         -0.4577
H479       H    0.9398964656    0.4898726496   -0.3494671526         -0.4616
Br480     Br    1.0818094411    0.5227644245   -0.3480474378          0.5054
F481       F    1.0604072360    0.5243187332   -0.2693813277          0.5104
C482       C    0.8874259135    0.4737688802   -0.3021990062         -0.4419
H483       H    0.8796482887    0.4937023807   -0.3261293169          0.5374
H484       H    0.8972033884    0.4457604160   -0.3144021336         -0.4164
H485       H    0.8606504559    0.4684896618   -0.2852657124         -0.4352
H486       H    0.9064795010    0.5201318460   -0.2659211487          0.5167
H487       H    0.9212220104    0.4730791856   -0.2496039486         -0.4376
C488       C    0.9657284561    0.5181016970   -0.2066482443          0.5224
C489       C    0.9686310926    0.5164062557   -0.1676234975          0.5271
C490       C    1.0000000000    0.5000000000   -0.1505517972         -0.4565
C491       C    1.0280858802    0.4849985382   -0.1732336384         -0.4444
C492       C    1.0250422348    0.4870163196   -0.2119506112         -0.4493
H493       H    0.9451538148    0.5291778444   -0.1500989474          0.5166
H494       H    0.9405151477    0.5335464287   -0.2182188735          0.5072
H495       H    1.0483866081    0.4726871518   -0.2283483127         -0.4373
H496       H    1.0538536795    0.4708322852   -0.1607187476         -0.4303
C445       C    1.0000000000    0.5000000000    0.1505517972           0.528
C446       C    0.9651965473    0.4967232561    0.1685775643           0.533
C447       C    0.9606305444    0.4998284731    0.2076843254          0.5332
C448       C    0.9934570663    0.5051568227    0.2300153164          0.5294
C449       C    1.0279486140    0.5119253321    0.2113711514          0.5211
C450       C    1.0312151932    0.5096869575    0.1725376125          0.5201
C451       C    0.9941833775    0.5040342920    0.2699066704          0.5336
C452       C    0.9191141772    0.4921980132    0.2246922490         -0.4577
H453       H    0.9398964656    0.4898726496    0.1505328474         -0.4616
Br454     Br    1.0818094411    0.5227644245    0.1519525622          0.5054
F455       F    1.0604072360    0.5243187332    0.2306186723          0.5104
C456       C    0.8874259135    0.4737688802    0.1978009938         -0.4419
H457       H    0.8796482887    0.4937023807    0.1738706831          0.5374
H458       H    0.8972033884    0.4457604160    0.1855978664         -0.4164
H459       H    0.8606504559    0.4684896618    0.2147342876         -0.4352
H460       H    0.9064795010    0.5201318460    0.2340788513          0.5167
H461       H    0.9212220104    0.4730791856    0.2503960514         -0.4376
C462       C    0.9657284561    0.5181016970    0.2933517557          0.5224
C463       C    0.9686310926    0.5164062557    0.3323765025          0.5271
C464       C    1.0000000000    0.5000000000    0.3494482028         -0.4565
C465       C    1.0280858802    0.4849985382    0.3267663616         -0.4444
C466       C    1.0250422348    0.4870163196    0.2880493888         -0.4493
H467       H    0.9451538148    0.5291778444    0.3499010526          0.5166
H468       H    0.9405151477    0.5335464287    0.2817811265          0.5072
H469       H    1.0483866081    0.4726871518    0.2716516873         -0.4373
H470       H    1.0538536795    0.4708322852    0.3392812524         -0.4303
C419       C    1.0000000000   -0.3494482028    0.5000000000           0.528
C420       C    0.9651965473   -0.3314224357    0.5032767439           0.533
C421       C    0.9606305444   -0.2923156746    0.5001715269          0.5332
C422       C    0.9934570663   -0.2699846836    0.4948431773          0.5294
C423       C    1.0279486140   -0.2886288486    0.4880746679          0.5211
C424       C    1.0312151932   -0.3274623875    0.4903130425          0.5201
C425       C    0.9941833775   -0.2300933296    0.4959657080          0.5336
C426       C    0.9191141772   -0.2753077510    0.5078019868         -0.4577
H427       H    0.9398964656   -0.3494671526    0.5101273504         -0.4616
Br428     Br    1.0818094411   -0.3480474378    0.4772355755          0.5054
F429       F    1.0604072360   -0.2693813277    0.4756812668          0.5104
C430       C    0.8874259135   -0.3021990062    0.5262311198         -0.4419
H431       H    0.8796482887   -0.3261293169    0.5062976193          0.5374
H432       H    0.8972033884   -0.3144021336    0.5542395840         -0.4164
H433       H    0.8606504559   -0.2852657124    0.5315103382         -0.4352
H434       H    0.9064795010   -0.2659211487    0.4798681540          0.5167
H435       H    0.9212220104   -0.2496039486    0.5269208144         -0.4376
C436       C    0.9657284561   -0.2066482443    0.4818983030          0.5224
C437       C    0.9686310926   -0.1676234975    0.4835937443          0.5271
C438       C    1.0000000000   -0.1505517972    0.5000000000         -0.4565
C439       C    1.0280858802   -0.1732336384    0.5150014618         -0.4444
C440       C    1.0250422348   -0.2119506112    0.5129836804         -0.4493
H441       H    0.9451538148   -0.1500989474    0.4708221556          0.5166
H442       H    0.9405151477   -0.2182188735    0.4664535713          0.5072
H443       H    1.0483866081   -0.2283483127    0.5273128482         -0.4373
H444       H    1.0538536795   -0.1607187476    0.5291677148         -0.4303
C393       C    1.0000000000    0.1505517972    0.5000000000           0.528
C394       C    0.9651965473    0.1685775643    0.5032767439           0.533
C395       C    0.9606305444    0.2076843254    0.5001715269          0.5332
C396       C    0.9934570663    0.2300153164    0.4948431773          0.5294
C397       C    1.0279486140    0.2113711514    0.4880746679          0.5211
C398       C    1.0312151932    0.1725376125    0.4903130425          0.5201
C399       C    0.9941833775    0.2699066704    0.4959657080          0.5336
C400       C    0.9191141772    0.2246922490    0.5078019868         -0.4577
H401       H    0.9398964656    0.1505328474    0.5101273504         -0.4616
Br402     Br    1.0818094411    0.1519525622    0.4772355755          0.5054
F403       F    1.0604072360    0.2306186723    0.4756812668          0.5104
C404       C    0.8874259135    0.1978009938    0.5262311198         -0.4419
H405       H    0.8796482887    0.1738706831    0.5062976193          0.5374
H406       H    0.8972033884    0.1855978664    0.5542395840         -0.4164
H407       H    0.8606504559    0.2147342876    0.5315103382         -0.4352
H408       H    0.9064795010    0.2340788513    0.4798681540          0.5167
H409       H    0.9212220104    0.2503960514    0.5269208144         -0.4376
C410       C    0.9657284561    0.2933517557    0.4818983030          0.5224
C411       C    0.9686310926    0.3323765025    0.4835937443          0.5271
C412       C    1.0000000000    0.3494482028    0.5000000000         -0.4565
C413       C    1.0280858802    0.3267663616    0.5150014618         -0.4444
C414       C    1.0250422348    0.2880493888    0.5129836804         -0.4493
H415       H    0.9451538148    0.3499010526    0.4708221556          0.5166
H416       H    0.9405151477    0.2817811265    0.4664535713          0.5072
H417       H    1.0483866081    0.2716516873    0.5273128482         -0.4373
H418       H    1.0538536795    0.3392812524    0.5291677148         -0.4303
C367       C    0.8494482028   -0.0000000000    0.5000000000           0.528
C368       C    0.8314224357    0.0113668653    0.5330577032           0.533
C369       C    0.7923156746    0.0094221001    0.5382257438          0.5332
C370       C    0.7699846836   -0.0034741143    0.5075718777          0.5294
C371       C    0.7886288486   -0.0181615574    0.4756382184          0.5211
C372       C    0.8274623875   -0.0167538579    0.4719369695          0.5201
C373       C    0.7300933296   -0.0025537929    0.5066020263          0.5336
C374       C    0.7753077510    0.0265988038    0.5767847053         -0.4577
H375       H    0.8494671526    0.0239732795    0.5560382008         -0.4616
Br376     Br    0.8480474378   -0.0413590307    0.4258350874 0.5085999999999999
F377       F    0.7693813277   -0.0378383250    0.4470028669          0.5104
C378       C    0.8021990062    0.0519610390    0.6032523463         -0.4419
H379       H    0.8261293169    0.0344146494    0.6154981660          0.5374
H380       H    0.8144021336    0.0768859341    0.5871643790         -0.4164
H381       H    0.7852657124    0.0633869521    0.6280362884         -0.4352
H382       H    0.7659211487    0.0024181491    0.5956322514          0.5167
H383       H    0.7496039486    0.0446862665    0.5702412947         -0.4376
C384       C    0.7066482443   -0.0095374595    0.5375665678          0.5224
C385       C    0.6676234975   -0.0085719175    0.5343467001          0.5271
C386       C    0.6505517972   -0.0000000000    0.5000000000         -0.4565
C387       C    0.6732336384    0.0079783032    0.4691745689         -0.4444
C388       C    0.7119506112    0.0067326048    0.4726072726         -0.4493
H389       H    0.6500989474   -0.0154662811    0.5601684700          0.5166
H390       H    0.7182188735   -0.0186219234    0.5657041437          0.5072
H391       H    0.7283483127    0.0151721387    0.4465485105         -0.4373
H392       H    0.6607187476    0.0156897640    0.4407986006         -0.4303
C341       C    1.3494482028   -0.0000000000    0.5000000000           0.528
C342       C    1.3314224357   -0.0151256599    0.5315155800           0.533
C343       C    1.2923156746   -0.0201396965    0.5338286281          0.5332
C344       C    1.2699846836   -0.0077909882    0.5029501363          0.5294
C345       C    1.2886288486    0.0041814522    0.4699025910          0.5211
C346       C    1.3274623875    0.0077830109    0.4682564940          0.5201
C347       C    1.2300933296   -0.0064547007    0.5029061054          0.5336
C348       C    1.2753077510   -0.0349932530    0.5733407088         -0.4577
H349       H    1.3494671526   -0.0222914686    0.5567281984         -0.4616
Br350     Br    1.3480474378    0.0226461404    0.4181577370          0.5054
F351       F    1.2693813277    0.0102857252    0.4356988429          0.5104
C352       C    1.3021990062   -0.0355278508    0.6099944017         -0.4419
H353       H    1.3261293169   -0.0566189083    0.6063884094          0.5374
H354       H    1.3144021336   -0.0064859192    0.6160474415         -0.4164
H355       H    1.2852657124   -0.0448006108    0.6356617194         -0.4352
H356       H    1.2659211487   -0.0654435124    0.5697747923          0.5167
H357       H    1.2496039486   -0.0175219715    0.5813860087         -0.4376
C358       C    1.2066482443   -0.0331732321    0.5200436230          0.5224
C359       C    1.1676234975   -0.0302245120    0.5184296623          0.5271
C360       C    1.1505517972   -0.0000000000    0.5000000000         -0.4565
C361       C    1.1732336384    0.0273288696    0.4836600669         -0.4444
C362       C    1.2119506112    0.0240312383    0.4852287757         -0.4493
H363       H    1.1500989474   -0.0532675772    0.5319689827          0.5166
H364       H    1.2182188735   -0.0594017826    0.5336933042          0.5072
H365       H    1.2283483127    0.0483406889    0.4726059619         -0.4373
H366       H    1.1607187476    0.0527474674    0.4688763906         -0.4303
C315       C   -0.0000000000   -0.1505517972    0.0000000000           0.528
C316       C   -0.0039714397   -0.1685775643   -0.0347310385           0.533
C317       C   -0.0079515776   -0.2076843254   -0.0385584734          0.5332
C318       C   -0.0063953537   -0.2300153164   -0.0053387500          0.5294
C319       C   -0.0059049404   -0.2113711514    0.0298072181          0.5211
C320       C   -0.0030409982   -0.1725376125    0.0325419385          0.5201
C321       C   -0.0051471631   -0.2699066704   -0.0048595597          0.5336
C322       C   -0.0090473444   -0.2246922490   -0.0807560084         -0.4577
H323       H   -0.0024859055   -0.1505328474   -0.0609000685         -0.4616
Br324     Br   -0.0054029498   -0.1519525622    0.0847455711          0.5054
F325       F   -0.0113377592   -0.2306186723    0.0641240218          0.5104
C326       C    0.0024503272   -0.1978009938   -0.1155638027         -0.4419
H327       H   -0.0186586763   -0.1738706831   -0.1190632111          0.5374
H328       H    0.0318731424   -0.1855978664   -0.1117728885         -0.4164
H329       H    0.0020939785   -0.2147342876   -0.1428524137         -0.4352
H330       H   -0.0389863916   -0.2340788513   -0.0873580919          0.5167
H331       H    0.0100951822   -0.2503960514   -0.0826364882         -0.4376
C332       C   -0.0247805918   -0.2933517557   -0.0298015507          0.5224
C333       C   -0.0225229694   -0.3323765025   -0.0273109764          0.5271
C334       C   -0.0000000000   -0.3494482028    0.0000000000         -0.4565
C335       C    0.0204712956   -0.3267663616    0.0243882468         -0.4444
C336       C    0.0178691814   -0.2880493888    0.0218261732         -0.4493
H337       H   -0.0398618674   -0.3499010526   -0.0476495767          0.5166
H338       H   -0.0450931990   -0.2817811265   -0.0512875612          0.5072
H339       H    0.0367047643   -0.2716516873    0.0417134966         -0.4373
H340       H    0.0396472647   -0.3392812524    0.0466804968         -0.4303
C289       C    0.0000000000    0.3494482028    0.0000000000           0.528
C290       C    0.0115198730    0.3314224357    0.0330046950           0.533
C291       C    0.0162449573    0.2923156746    0.0358620247          0.5332
C292       C    0.0074137566    0.2699846836    0.0037998703          0.5294
C293       C   -0.0008018341    0.2886288486   -0.0303759055          0.5211
C294       C   -0.0041975507    0.3274623875   -0.0324130530          0.5201
C295       C    0.0060906963    0.2300933296    0.0036072188          0.5336
C296       C    0.0266034176    0.2753077510    0.0767831068         -0.4577
H297       H    0.0158317638    0.3494671526    0.0588587574         -0.4616
Br298     Br   -0.0133859123    0.3480474378   -0.0838559541          0.5054
F299       F   -0.0030569700    0.2693813277   -0.0650468284          0.5104
C300       C    0.0230505779    0.3021990062    0.1132681219         -0.4419
H301       H    0.0444120948    0.3261293169    0.1120346387          0.5374
H302       H   -0.0064849630    0.3144021336    0.1160474949         -0.4164
H303       H    0.0294056352    0.2852657124    0.1398088175         -0.4352
H304       H    0.0572613907    0.2659211487    0.0766322915          0.5167
H305       H    0.0083444897    0.2496039486    0.0828315844         -0.4376
C306       C    0.0307333155    0.2066482443    0.0236151111          0.5224
C307       C    0.0279827915    0.1676234975    0.0216826419          0.5271
C308       C    0.0000000000    0.1505517972    0.0000000000         -0.4565
C309       C   -0.0253380269    0.1732336384   -0.0192832809         -0.4444
C310       C   -0.0222357223    0.2119506112   -0.0173569046         -0.4493
H311       H    0.0493737580    0.1500989474    0.0377052072          0.5166
H312       H    0.0552776342    0.2182188735    0.0401022902          0.5072
H313       H   -0.0449873094    0.2283483127   -0.0326097764         -0.4373
H314       H   -0.0489510821    0.1607187476   -0.0368071453         -0.4303
C263       C   -0.3494482028   -0.0000000000    0.0000000000           0.528
C264       C   -0.3314224357   -0.0242461701    0.0251821485           0.533
C265       C   -0.2923156746   -0.0246619261    0.0306883180          0.5332
C266       C   -0.2699846836   -0.0000426266    0.0083307253          0.5294
C267       C   -0.2886288486    0.0267405159   -0.0144320262          0.5211
C268       C   -0.3274623875    0.0270247643   -0.0183817178          0.5201
C269       C   -0.2300933296   -0.0004681787    0.0070632441          0.5336
C270       C   -0.2753077510   -0.0564958618    0.0584089456         -0.4577
H271       H   -0.3494671526   -0.0453671100    0.0407040957         -0.4616
Br272     Br   -0.3480474378    0.0687750582   -0.0498095880          0.5054
F273       F   -0.2693813277    0.0566569621   -0.0321002118          0.5104
C274       C   -0.3021990062   -0.0906535731    0.0717141985         -0.4419
H275       H   -0.3261293169   -0.0799069657    0.0902168015          0.5374
H276       H   -0.3144021336   -0.1064705617    0.0466164704         -0.4164
H277       H   -0.2852657124   -0.1114645386    0.0893691976         -0.4352
H278       H   -0.2659211487   -0.0425173296    0.0856951086          0.5167
H279       H   -0.2496039486   -0.0701375885    0.0448488636         -0.4376
C280       C   -0.2066482443   -0.0071923528    0.0380851705          0.5224
C281       C   -0.1676234975   -0.0067101583    0.0347584142          0.5271
C282       C   -0.1505517972   -0.0000000000    0.0000000000         -0.4565
C283       C   -0.1732336384    0.0057636274   -0.0313151900         -0.4444
C284       C   -0.2119506112    0.0054457198   -0.0276773123         -0.4493
H285       H   -0.1500989474   -0.0113467869    0.0610794651          0.5166
H286       H   -0.2182188735   -0.0108195951    0.0674295699          0.5072
H287       H   -0.2283483127    0.0087811930   -0.0548647990         -0.4373
H288       H   -0.1607187476    0.0107363645   -0.0602968064         -0.4303
C237       C    0.3494482028   -0.0000000000    0.0000000000           0.528
C238       C    0.3314224357    0.0346704422   -0.0044696538           0.533
C239       C    0.2923156746    0.0393403591   -0.0015230234          0.5332
C240       C    0.2699846836    0.0067161162    0.0049291566          0.5294
C241       C    0.2886288486   -0.0275227286    0.0128778096          0.5211
C242       C    0.3274623875   -0.0308642282    0.0107528997          0.5201
C243       C    0.2300933296    0.0059516954    0.0038322227          0.5336
C244       C    0.2753077510    0.0805702907   -0.0105742886         -0.4577
H245       H    0.3494671526    0.0597204209   -0.0121848022         -0.4616
Br246     Br    0.3480474378   -0.0809796873    0.0255596151          0.5054
F247       F    0.2693813277   -0.0595367374    0.0263782458          0.5104
C248       C    0.3021990062    0.1116071818   -0.0300804515         -0.4419
H249       H    0.3261293169    0.1200645613   -0.0104257162          0.5374
H250       H    0.3144021336    0.1008739086   -0.0577367334         -0.4164
H251       H    0.2852657124    0.1381856141   -0.0362757894         -0.4352
H252       H    0.2659211487    0.0941565188    0.0169093149          0.5167
H253       H    0.2496039486    0.0778073293   -0.0296094817         -0.4376
C254       C    0.2066482443    0.0348727928    0.0169144457          0.5224
C255       C    0.1676234975    0.0319136610    0.0153196547          0.5271
C256       C    0.1505517972   -0.0000000000    0.0000000000         -0.4565
C257       C    0.1732336384   -0.0285843410   -0.0140283989         -0.4444
C258       C    0.2119506112   -0.0254732171   -0.0121162987         -0.4493
H259       H    0.1500989474    0.0558155622    0.0272777134          0.5166
H260       H    0.2182188735    0.0606014732    0.0314844719          0.5072
H261       H    0.2283483127   -0.0492957655   -0.0256355812         -0.4373
H262       H    0.1607187476   -0.0548232938   -0.0273016637         -0.4303
C211       C    0.0000000000    0.0000000000   -0.3494482028           0.528
C212       C   -0.0339260467    0.0084285658   -0.3314224357           0.533
C213       C   -0.0372067544    0.0128701548   -0.2923156746          0.5332
C214       C   -0.0044670685    0.0070319344   -0.2699846836          0.5294
C215       C    0.0303204955    0.0020015297   -0.2886288486          0.5211
C216       C    0.0326619761   -0.0011919527   -0.3274623875          0.5201
C217       C   -0.0041532818    0.0057322648   -0.2300933296          0.5336
C218       C   -0.0789084303    0.0194125461   -0.2753077510         -0.4577
H219       H   -0.0600674956    0.0103389578   -0.3494671526         -0.4616
Br220     Br    0.0847328203   -0.0055993606   -0.3480474378          0.5054
F221       F    0.0650516838    0.0029518453   -0.2693813277          0.5104
C222       C   -0.1149106276    0.0125117644   -0.3021990062         -0.4419
H223       H   -0.1156514294    0.0338960366   -0.3261293169          0.5374
H224       H   -0.1149556798   -0.0171542272   -0.3144021336         -0.4164
H225       H   -0.1419241187    0.0163933330   -0.2852657124         -0.4352
H226       H   -0.0815842072    0.0499538996   -0.2659211487          0.5167
H227       H   -0.0832481102    0.0006738239   -0.2496039486         -0.4376
C228       C   -0.0263474687    0.0284257110   -0.2066482443          0.5224
C229       C   -0.0241696925    0.0258650255   -0.1676234975          0.5271
C230       C    0.0000000000    0.0000000000   -0.1505517972         -0.4565
C231       C    0.0215367607   -0.0234526856   -0.1732336384         -0.4444
C232       C    0.0193326255   -0.0205411556   -0.2119506112         -0.4493
H233       H   -0.0420957928    0.0456880167   -0.1500989474          0.5166
H234       H   -0.0450268703    0.0513458030   -0.2182188735          0.5072
H235       H    0.0366177266   -0.0417899225   -0.2283483127         -0.4373
H236       H    0.0411625933   -0.0453499206   -0.1607187476         -0.4303
C185       C   -0.0000000000    0.0000000000    0.1505517972           0.528
C186       C   -0.0124546479    0.0326634216    0.1685775643           0.533
C187       C   -0.0106819787    0.0378929913    0.2076843254          0.5332
C188       C    0.0032216283    0.0076827022    0.2300153164          0.5294
C189       C    0.0189578361   -0.0237474003    0.2113711514          0.5211
C190       C    0.0176733964   -0.0274932081    0.1725376125          0.5201
C191       C    0.0023339072    0.0066829250    0.2699066704          0.5336
C192       C   -0.0291253407    0.0758623876    0.2246922490         -0.4577
H193       H   -0.0258146715    0.0552141360    0.1505328474         -0.4616
Br194     Br    0.0437907835   -0.0727555562    0.1519525622          0.5054
F195       F    0.0395714815   -0.0517158854    0.2306186723          0.5104
C196       C   -0.0553496015    0.1014761952    0.1978009938         -0.4419
H197       H   -0.0382180851    0.1142959859    0.1738706831          0.5374
H198       H   -0.0797284301    0.0845721778    0.1855978664         -0.4164
H199       H   -0.0675894538    0.1258684336    0.2147342876         -0.4352
H200       H   -0.0055816701    0.0954998425    0.2340788513          0.5167
H201       H   -0.0469863489    0.0687239762    0.2503960514         -0.4376
C202       C    0.0082890106    0.0378616225    0.2933517557          0.5224
C203       C    0.0074305554    0.0346115649    0.3323765025          0.5271
C204       C    0.0000000000    0.0000000000    0.3494482028         -0.4565
C205       C   -0.0069537988   -0.0310725797    0.3267663616         -0.4444
C206       C   -0.0058223844   -0.0276005312    0.2880493888         -0.4493
H207       H    0.0134665992    0.0606473523    0.3499010526          0.5166
H208       H    0.0164373158    0.0662844264    0.2817811265          0.5072
H209       H   -0.0133949091   -0.0539243167    0.2716516873         -0.4373
H210       H   -0.0137219638   -0.0596882073    0.3392812524         -0.4303
loop_
_geom_bond_atom_site_label_1
_geom_bond_atom_site_label_2
_geom_bond_distance
_geom_bond_site_symmetry_2
_ccdc_geom_bond_type
Zn1          O5 1.942       .   S
Zn1          O6 1.922       .   S
Zn1         O10 1.922       .   S
Zn1         O17 1.922       .   S
Zn2          O5 1.942       .   S
Zn2          O7 1.922       .   S
Zn2          O9 1.922       .   S
Zn2         O13 1.922       .   S
Zn3          O5 1.942       .   S
Zn3          O8 1.922       .   S
Zn3         O11 1.922       .   S
Zn3         O14 1.922       .   S
Zn4          O5 1.942       .   S
Zn4         O12 1.922       .   S
Zn4         O15 1.922       .   S
Zn4         O16 1.922       .   S
O6          C18 1.304       .   A
O7          C19 1.304       .   A
O8          C20 1.304       .   A
O9          C18 1.304       .   A
O10         C20 1.304       .   A
O11         C19 1.304       .   A
O12         C21 1.304       .   A
O13         C22 1.304       .   A
O14         C21 1.304       .   A
O15         C22 1.304       .   A
O16         C23 1.304       .   A
O17         C23 1.304       .   A
C18        C185 1.540       .   S
C19        C256 1.540       .   S
C20        C315 1.540       .   S
C21        C230 1.540       .   S
C22        C308 1.540       .   S
C23        C282 1.540       .   S
Zn24        O28 1.942       .   S
Zn24        O29 1.922       .   S
Zn24        O33 1.922       .   S
Zn24        O40 1.922       .   S
Zn25        O28 1.942       .   S
Zn25        O30 1.922       .   S
Zn25        O32 1.922       .   S
Zn25        O36 1.922       .   S
Zn26        O28 1.942       .   S
Zn26        O31 1.922       .   S
Zn26        O34 1.922       .   S
Zn26        O37 1.922       .   S
Zn27        O28 1.942       .   S
Zn27        O35 1.922       .   S
Zn27        O38 1.922       .   S
Zn27        O39 1.922       .   S
O29         C41 1.304       .   A
O30         C42 1.304       .   A
O31         C43 1.304       .   A
O32         C41 1.304       .   A
O33         C43 1.304       .   A
O34         C42 1.304       .   A
O35         C44 1.304       .   A
O36         C45 1.304       .   A
O37         C44 1.304       .   A
O38         C45 1.304       .   A
O39         C46 1.304       .   A
O40         C46 1.304       .   A
C41        C360 1.540       .   S
C42        C204 1.540   1_655   S
C43        C438 1.540       .   S
C44        C367 1.540       .   S
C45        C393 1.540       .   S
C46        C211 1.540   1_656   S
Zn47        O51 1.942       .   S
Zn47        O52 1.922       .   S
Zn47        O56 1.922       .   S
Zn47        O63 1.922       .   S
Zn48        O51 1.942       .   S
Zn48        O53 1.922       .   S
Zn48        O55 1.922       .   S
Zn48        O59 1.922       .   S
Zn49        O51 1.942       .   S
Zn49        O54 1.922       .   S
Zn49        O57 1.922       .   S
Zn49        O60 1.922       .   S
Zn50        O51 1.942       .   S
Zn50        O58 1.922       .   S
Zn50        O61 1.922       .   S
Zn50        O62 1.922       .   S
O52         C64 1.304       .   A
O53         C65 1.304       .   A
O54         C66 1.304       .   A
O55         C64 1.304       .   A
O56         C66 1.304       .   A
O57         C65 1.304       .   A
O58         C67 1.304       .   A
O59         C68 1.304       .   A
O60         C67 1.304       .   A
O61         C68 1.304       .   A
O62         C69 1.304       .   A
O63         C69 1.304       .   A
C64        C289 1.540   1_655   S
C65        C445 1.540       .   S
C66        C497 1.540       .   S
C67        C334 1.540   1_665   S
C68        C523 1.540       .   S
C69        C490 1.540       .   S
Zn70        O74 1.942       .   S
Zn70        O75 1.922       .   S
Zn70        O79 1.922       .   S
Zn70        O86 1.922       .   S
Zn71        O74 1.942       .   S
Zn71        O76 1.922       .   S
Zn71        O78 1.922       .   S
Zn71        O82 1.922       .   S
Zn72        O74 1.942       .   S
Zn72        O77 1.922       .   S
Zn72        O80 1.922       .   S
Zn72        O83 1.922       .   S
Zn73        O74 1.942       .   S
Zn73        O81 1.922       .   S
Zn73        O84 1.922       .   S
Zn73        O85 1.922       .   S
O75         C87 1.304       .   A
O76         C88 1.304       .   A
O77         C89 1.304       .   A
O78         C87 1.304       .   A
O79         C89 1.304       .   A
O80         C88 1.304       .   A
O81         C90 1.304       .   A
O82         C91 1.304       .   A
O83         C90 1.304       .   A
O84         C91 1.304       .   A
O85         C92 1.304       .   A
O86         C92 1.304       .   A
C87        C412 1.540       .   S
C88        C464 1.540       .   S
C89        C575 1.540       .   S
C90        C419 1.540   1_565   S
C91        C549 1.540       .   S
C92        C471 1.540   1_556   S
Zn93        O97 1.942       .   S
Zn93        O98 1.922       .   S
Zn93       O102 1.922       .   S
Zn93       O109 1.922       .   S
Zn94        O97 1.942       .   S
Zn94        O99 1.922       .   S
Zn94       O101 1.922       .   S
Zn94       O105 1.922       .   S
Zn95        O97 1.942       .   S
Zn95       O100 1.922       .   S
Zn95       O103 1.922       .   S
Zn95       O106 1.922       .   S
Zn96        O97 1.942       .   S
Zn96       O104 1.922       .   S
Zn96       O107 1.922       .   S
Zn96       O108 1.922       .   S
O98        C110 1.304       .   A
O99        C111 1.304       .   A
O100       C112 1.304       .   A
O101       C110 1.304       .   A
O102       C112 1.304       .   A
O103       C111 1.304       .   A
O104       C113 1.304       .   A
O105       C114 1.304       .   A
O106       C113 1.304       .   A
O107       C114 1.304       .   A
O108       C115 1.304       .   A
O109       C115 1.304       .   A
C110       C237 1.540   1_565   S
C111       C601 1.540       .   S
C112       C698 1.540       .   S
C113       C263 1.540   1_665   S
C114       C653 1.540       .   S
C115       C646 1.540       .   S
Zn116      O120 1.942       .   S
Zn116      O121 1.922       .   S
Zn116      O125 1.922       .   S
Zn116      O132 1.922       .   S
Zn117      O120 1.942       .   S
Zn117      O122 1.922       .   S
Zn117      O124 1.922       .   S
Zn117      O128 1.922       .   S
Zn118      O120 1.942       .   S
Zn118      O123 1.922       .   S
Zn118      O126 1.922       .   S
Zn118      O129 1.922       .   S
Zn119      O120 1.942       .   S
Zn119      O127 1.922       .   S
Zn119      O130 1.922       .   S
Zn119      O131 1.922       .   S
O121       C133 1.304       .   A
O122       C134 1.304       .   A
O123       C135 1.304       .   A
O124       C133 1.304       .   A
O125       C135 1.304       .   A
O126       C134 1.304       .   A
O127       C136 1.304       .   A
O128       C137 1.304       .   A
O129       C136 1.304       .   A
O130       C137 1.304       .   A
O131       C138 1.304       .   A
O132       C138 1.304       .   A
C133       C620 1.540       .   S
C134       C341 1.540   1_465   S
C135       C731 1.540       .   S
C136       C627 1.540   1_556   S
C137       C705 1.540       .   S
C138       C386 1.540   1_565   S
Zn139      O143 1.942       .   S
Zn139      O144 1.922       .   S
Zn139      O148 1.922       .   S
Zn139      O155 1.922       .   S
Zn140      O143 1.942       .   S
Zn140      O145 1.922       .   S
Zn140      O147 1.922       .   S
Zn140      O151 1.922       .   S
Zn141      O143 1.942       .   S
Zn141      O146 1.922       .   S
Zn141      O149 1.922       .   S
Zn141      O152 1.922       .   S
Zn142      O143 1.942       .   S
Zn142      O150 1.922       .   S
Zn142      O153 1.922       .   S
Zn142      O154 1.922       .   S
O144       C156 1.304       .   A
O145       C157 1.304       .   A
O146       C158 1.304       .   A
O147       C156 1.304       .   A
O148       C158 1.304       .   A
O149       C157 1.304       .   A
O150       C159 1.304       .   A
O151       C160 1.304       .   A
O152       C159 1.304       .   A
O153       C160 1.304       .   A
O154       C161 1.304       .   A
O155       C161 1.304       .   A
C156       C516 1.540   1_455   S
C157       C672 1.540   1_545   S
C158       C802 1.540       .   S
C159       C542 1.540       .   S
C160       C757 1.540       .   S
C161       C679 1.540       .   S
Zn162      O166 1.942       .   S
Zn162      O167 1.922       .   S
Zn162      O171 1.922       .   S
Zn162      O178 1.922       .   S
Zn163      O166 1.942       .   S
Zn163      O168 1.922       .   S
Zn163      O170 1.922       .   S
Zn163      O174 1.922       .   S
Zn164      O166 1.942       .   S
Zn164      O169 1.922       .   S
Zn164      O172 1.922       .   S
Zn164      O175 1.922       .   S
Zn165      O166 1.942       .   S
Zn165      O173 1.922       .   S
Zn165      O176 1.922       .   S
Zn165      O177 1.922       .   S
O167       C179 1.304       .   A
O168       C180 1.304       .   A
O169       C181 1.304       .   A
O170       C179 1.304       .   A
O171       C181 1.304       .   A
O172       C180 1.304       .   A
O173       C182 1.304       .   A
O174       C183 1.304       .   A
O175       C182 1.304       .   A
O176       C183 1.304       .   A
O177       C184 1.304       .   A
O178       C184 1.304       .   A
C179       C724 1.540   1_545   S
C180       C568 1.540   1_455   S
C181       C783 1.540   1_556   S
C182       C750 1.540       .   S
C183       C776 1.540       .   S
C184       C594 1.540       .   S
C783       C784 0.037       .   A
C783       C788 0.038       .   A
C784       C785 0.038       .   A
C784       H791 0.030       .   A
C785       C786 0.038       .   A
C785       C790 0.043       .   A
C786       C787 0.038       .   A
C786       C789 0.038       .   A
C787       C788 0.037       .   A
C787       F793 0.038       .   A
C788      Br792 0.053       .   A
C789       C800 0.038       .   A
C789       C804 0.038       .   A
C790       C794 0.043       .   A
C790       H798 0.031       .   A
C790       H799 0.031       .   A
C794       H795 0.031       .   A
C794       H796 0.031       .   A
C794       H797 0.031       .   A
C800       C801 0.037       .   A
C800       H806 0.030       .   A
C801       C802 0.037       .   A
C801       H805 0.030       .   A
C802       C803 0.037       .   A
C803       C804 0.037       .   A
C803       H808 0.030       .   A
C804       H807 0.030       .   A
C757       C758 0.037       .   A
C757       C762 0.038       .   A
C758       C759 0.038       .   A
C758       H765 0.030       .   A
C759       C760 0.038       .   A
C759       C764 0.043       .   A
C760       C761 0.038       .   A
C760       C763 0.038       .   A
C761       C762 0.037       .   A
C761       F767 0.038       .   A
C762      Br766 0.053       .   A
C763       C774 0.038       .   A
C763       C778 0.038       .   A
C764       C768 0.043       .   A
C764       H772 0.031       .   A
C764       H773 0.031       .   A
C768       H769 0.031       .   A
C768       H770 0.031       .   A
C768       H771 0.031       .   A
C774       C775 0.037       .   A
C774       H780 0.030       .   A
C775       C776 0.037       .   A
C775       H779 0.030       .   A
C776       C777 0.037       .   A
C777       C778 0.037       .   A
C777       H782 0.030       .   A
C778       H781 0.030       .   A
C731       C732 0.037       .   A
C731       C736 0.038       .   A
C732       C733 0.038       .   A
C732       H739 0.030       .   A
C733       C734 0.038       .   A
C733       C738 0.043       .   A
C734       C735 0.038       .   A
C734       C737 0.038       .   A
C735       C736 0.037       .   A
C735       F741 0.038       .   A
C736      Br740 0.053       .   A
C737       C748 0.038       .   A
C737       C752 0.038       .   A
C738       C742 0.043       .   A
C738       H746 0.031       .   A
C738       H747 0.031       .   A
C742       H743 0.031       .   A
C742       H744 0.031       .   A
C742       H745 0.031       .   A
C748       C749 0.037       .   A
C748       H754 0.030       .   A
C749       C750 0.037       .   A
C749       H753 0.030       .   A
C750       C751 0.037       .   A
C751       C752 0.037       .   A
C751       H756 0.030       .   A
C752       H755 0.030       .   A
C705       C706 0.037       .   A
C705       C710 0.038       .   A
C706       C707 0.038       .   A
C706       H713 0.030       .   A
C707       C708 0.038       .   A
C707       C712 0.043       .   A
C708       C709 0.038       .   A
C708       C711 0.038       .   A
C709       C710 0.037       .   A
C709       F715 0.038       .   A
C710      Br714 0.053       .   A
C711       C722 0.038       .   A
C711       C726 0.038       .   A
C712       C716 0.043       .   A
C712       H720 0.031       .   A
C712       H721 0.031       .   A
C716       H717 0.031       .   A
C716       H718 0.031       .   A
C716       H719 0.031       .   A
C722       C723 0.037       .   A
C722       H728 0.030       .   A
C723       C724 0.037       .   A
C723       H727 0.030       .   A
C724       C725 0.037       .   A
C725       C726 0.037       .   A
C725       H730 0.030       .   A
C726       H729 0.030       .   A
C679       C680 0.037       .   A
C679       C684 0.038       .   A
C680       C681 0.038       .   A
C680       H687 0.030       .   A
C681       C682 0.038       .   A
C681       C686 0.043       .   A
C682       C683 0.038       .   A
C682       C685 0.038       .   A
C683       C684 0.037       .   A
C683       F689 0.038       .   A
C684      Br688 0.053       .   A
C685       C696 0.038       .   A
C685       C700 0.038       .   A
C686       C690 0.043       .   A
C686       H694 0.031       .   A
C686       H695 0.031       .   A
C690       H691 0.031       .   A
C690       H692 0.031       .   A
C690       H693 0.031       .   A
C696       C697 0.037       .   A
C696       H702 0.030       .   A
C697       C698 0.037       .   A
C697       H701 0.030       .   A
C698       C699 0.037       .   A
C699       C700 0.037       .   A
C699       H704 0.030       .   A
C700       H703 0.030       .   A
C653       C654 0.037       .   A
C653       C658 0.038       .   A
C654       C655 0.038       .   A
C654       H661 0.030       .   A
C655       C656 0.038       .   A
C655       C660 0.043       .   A
C656       C657 0.038       .   A
C656       C659 0.038       .   A
C657       C658 0.037       .   A
C657       F663 0.038       .   A
C658      Br662 0.053       .   A
C659       C670 0.038       .   A
C659       C674 0.038       .   A
C660       C664 0.043       .   A
C660       H668 0.031       .   A
C660       H669 0.031       .   A
C664       H665 0.031       .   A
C664       H666 0.031       .   A
C664       H667 0.031       .   A
C670       C671 0.037       .   A
C670       H676 0.030       .   A
C671       C672 0.037       .   A
C671       H675 0.030       .   A
C672       C673 0.037       .   A
C673       C674 0.037       .   A
C673       H678 0.030       .   A
C674       H677 0.030       .   A
C627       C628 0.037       .   A
C627       C632 0.038       .   A
C628       C629 0.038       .   A
C628       H635 0.030       .   A
C629       C630 0.038       .   A
C629       C634 0.043       .   A
C630       C631 0.038       .   A
C630       C633 0.038       .   A
C631       C632 0.037       .   A
C631       F637 0.038       .   A
C632      Br636 0.053       .   A
C633       C644 0.038       .   A
C633       C648 0.038       .   A
C634       C638 0.043       .   A
C634       H642 0.031       .   A
C634       H643 0.031       .   A
C638       H639 0.031       .   A
C638       H640 0.031       .   A
C638       H641 0.031       .   A
C644       C645 0.037       .   A
C644       H650 0.030       .   A
C645       C646 0.037       .   A
C645       H649 0.030       .   A
C646       C647 0.037       .   A
C647       C648 0.037       .   A
C647       H652 0.030       .   A
C648       H651 0.030       .   A
C601       C602 0.037       .   A
C601       C606 0.038       .   A
C602       C603 0.038       .   A
C602       H609 0.030       .   A
C603       C604 0.038       .   A
C603       C608 0.043       .   A
C604       C605 0.038       .   A
C604       C607 0.038       .   A
C605       C606 0.037       .   A
C605       F611 0.038       .   A
C606      Br610 0.053       .   A
C607       C618 0.038       .   A
C607       C622 0.038       .   A
C608       C612 0.043       .   A
C608       H616 0.031       .   A
C608       H617 0.031       .   A
C612       H613 0.031       .   A
C612       H614 0.031       .   A
C612       H615 0.031       .   A
C618       C619 0.037       .   A
C618       H624 0.030       .   A
C619       C620 0.037       .   A
C619       H623 0.030       .   A
C620       C621 0.037       .   A
C621       C622 0.037       .   A
C621       H626 0.030       .   A
C622       H625 0.030       .   A
C575       C576 0.037       .   A
C575       C580 0.038       .   A
C576       C577 0.038       .   A
C576       H583 0.030       .   A
C577       C578 0.038       .   A
C577       C582 0.043       .   A
C578       C579 0.038       .   A
C578       C581 0.038       .   A
C579       C580 0.037       .   A
C579       F585 0.038       .   A
C580      Br584 0.053       .   A
C581       C592 0.038       .   A
C581       C596 0.038       .   A
C582       C586 0.043       .   A
C582       H590 0.031       .   A
C582       H591 0.031       .   A
C586       H587 0.031       .   A
C586       H588 0.031       .   A
C586       H589 0.031       .   A
C592       C593 0.037       .   A
C592       H598 0.030       .   A
C593       C594 0.037       .   A
C593       H597 0.030       .   A
C594       C595 0.037       .   A
C595       C596 0.037       .   A
C595       H600 0.030       .   A
C596       H599 0.030       .   A
C549       C550 0.037       .   A
C549       C554 0.038       .   A
C550       C551 0.038       .   A
C550       H557 0.030       .   A
C551       C552 0.038       .   A
C551       C556 0.043       .   A
C552       C553 0.038       .   A
C552       C555 0.038       .   A
C553       C554 0.037       .   A
C553       F559 0.038       .   A
C554      Br558 0.053       .   A
C555       C566 0.038       .   A
C555       C570 0.038       .   A
C556       C560 0.043       .   A
C556       H564 0.031       .   A
C556       H565 0.031       .   A
C560       H561 0.031       .   A
C560       H562 0.031       .   A
C560       H563 0.031       .   A
C566       C567 0.037       .   A
C566       H572 0.030       .   A
C567       C568 0.037       .   A
C567       H571 0.030       .   A
C568       C569 0.037       .   A
C569       C570 0.037       .   A
C569       H574 0.030       .   A
C570       H573 0.030       .   A
C523       C524 0.037       .   A
C523       C528 0.038       .   A
C524       C525 0.038       .   A
C524       H531 0.030       .   A
C525       C526 0.038       .   A
C525       C530 0.043       .   A
C526       C527 0.038       .   A
C526       C529 0.038       .   A
C527       C528 0.037       .   A
C527       F533 0.038       .   A
C528      Br532 0.053       .   A
C529       C540 0.038       .   A
C529       C544 0.038       .   A
C530       C534 0.043       .   A
C530       H538 0.031       .   A
C530       H539 0.031       .   A
C534       H535 0.031       .   A
C534       H536 0.031       .   A
C534       H537 0.031       .   A
C540       C541 0.037       .   A
C540       H546 0.030       .   A
C541       C542 0.037       .   A
C541       H545 0.030       .   A
C542       C543 0.037       .   A
C543       C544 0.037       .   A
C543       H548 0.030       .   A
C544       H547 0.030       .   A
C497       C498 0.037       .   A
C497       C502 0.038       .   A
C498       C499 0.038       .   A
C498       H505 0.030       .   A
C499       C500 0.038       .   A
C499       C504 0.043       .   A
C500       C501 0.038       .   A
C500       C503 0.038       .   A
C501       C502 0.037       .   A
C501       F507 0.038       .   A
C502      Br506 0.053       .   A
C503       C514 0.038       .   A
C503       C518 0.038       .   A
C504       C508 0.043       .   A
C504       H512 0.031       .   A
C504       H513 0.031       .   A
C508       H509 0.031       .   A
C508       H510 0.031       .   A
C508       H511 0.031       .   A
C514       C515 0.037       .   A
C514       H520 0.030       .   A
C515       C516 0.037       .   A
C515       H519 0.030       .   A
C516       C517 0.037       .   A
C517       C518 0.037       .   A
C517       H522 0.030       .   A
C518       H521 0.030       .   A
C471       C472 0.037       .   A
C471       C476 0.038       .   A
C472       C473 0.038       .   A
C472       H479 0.030       .   A
C473       C474 0.038       .   A
C473       C478 0.043       .   A
C474       C475 0.038       .   A
C474       C477 0.038       .   A
C475       C476 0.037       .   A
C475       F481 0.038       .   A
C476      Br480 0.053       .   A
C477       C488 0.038       .   A
C477       C492 0.038       .   A
C478       C482 0.043       .   A
C478       H486 0.031       .   A
C478       H487 0.031       .   A
C482       H483 0.031       .   A
C482       H484 0.031       .   A
C482       H485 0.031       .   A
C488       C489 0.037       .   A
C488       H494 0.030       .   A
C489       C490 0.037       .   A
C489       H493 0.030       .   A
C490       C491 0.037       .   A
C491       C492 0.037       .   A
C491       H496 0.030       .   A
C492       H495 0.030       .   A
C445       C446 0.037       .   A
C445       C450 0.038       .   A
C446       C447 0.038       .   A
C446       H453 0.030       .   A
C447       C448 0.038       .   A
C447       C452 0.043       .   A
C448       C449 0.038       .   A
C448       C451 0.038       .   A
C449       C450 0.037       .   A
C449       F455 0.038       .   A
C450      Br454 0.053       .   A
C451       C462 0.038       .   A
C451       C466 0.038       .   A
C452       C456 0.043       .   A
C452       H460 0.031       .   A
C452       H461 0.031       .   A
C456       H457 0.031       .   A
C456       H458 0.031       .   A
C456       H459 0.031       .   A
C462       C463 0.037       .   A
C462       H468 0.030       .   A
C463       C464 0.037       .   A
C463       H467 0.030       .   A
C464       C465 0.037       .   A
C465       C466 0.037       .   A
C465       H470 0.030       .   A
C466       H469 0.030       .   A
C419       C420 0.037       .   A
C419       C424 0.038       .   A
C420       C421 0.038       .   A
C420       H427 0.030       .   A
C421       C422 0.038       .   A
C421       C426 0.043       .   A
C422       C423 0.038       .   A
C422       C425 0.038       .   A
C423       C424 0.037       .   A
C423       F429 0.038       .   A
C424      Br428 0.053       .   A
C425       C436 0.038       .   A
C425       C440 0.038       .   A
C426       C430 0.043       .   A
C426       H434 0.031       .   A
C426       H435 0.031       .   A
C430       H431 0.031       .   A
C430       H432 0.031       .   A
C430       H433 0.031       .   A
C436       C437 0.037       .   A
C436       H442 0.030       .   A
C437       C438 0.037       .   A
C437       H441 0.030       .   A
C438       C439 0.037       .   A
C439       C440 0.037       .   A
C439       H444 0.030       .   A
C440       H443 0.030       .   A
C393       C394 0.037       .   A
C393       C398 0.038       .   A
C394       C395 0.038       .   A
C394       H401 0.030       .   A
C395       C396 0.038       .   A
C395       C400 0.043       .   A
C396       C397 0.038       .   A
C396       C399 0.038       .   A
C397       C398 0.037       .   A
C397       F403 0.038       .   A
C398      Br402 0.053       .   A
C399       C410 0.038       .   A
C399       C414 0.038       .   A
C400       C404 0.043       .   A
C400       H408 0.031       .   A
C400       H409 0.031       .   A
C404       H405 0.031       .   A
C404       H406 0.031       .   A
C404       H407 0.031       .   A
C410       C411 0.037       .   A
C410       H416 0.030       .   A
C411       C412 0.037       .   A
C411       H415 0.030       .   A
C412       C413 0.037       .   A
C413       C414 0.037       .   A
C413       H418 0.030       .   A
C414       H417 0.030       .   A
C367       C368 0.037       .   A
C367       C372 0.038       .   A
C368       C369 0.038       .   A
C368       H375 0.030       .   A
C369       C370 0.038       .   A
C369       C374 0.043       .   A
C370       C371 0.038       .   A
C370       C373 0.038       .   A
C371       C372 0.037       .   A
C371       F377 0.038       .   A
C372      Br376 0.053       .   A
C373       C384 0.038       .   A
C373       C388 0.038       .   A
C374       C378 0.043       .   A
C374       H382 0.031       .   A
C374       H383 0.031       .   A
C378       H379 0.031       .   A
C378       H380 0.031       .   A
C378       H381 0.031       .   A
C384       C385 0.037       .   A
C384       H390 0.030       .   A
C385       C386 0.037       .   A
C385       H389 0.030       .   A
C386       C387 0.037       .   A
C387       C388 0.037       .   A
C387       H392 0.030       .   A
C388       H391 0.030       .   A
C341       C342 0.037       .   A
C341       C346 0.038       .   A
C342       C343 0.038       .   A
C342       H349 0.030       .   A
C343       C344 0.038       .   A
C343       C348 0.043       .   A
C344       C345 0.038       .   A
C344       C347 0.038       .   A
C345       C346 0.037       .   A
C345       F351 0.038       .   A
C346      Br350 0.053       .   A
C347       C358 0.038       .   A
C347       C362 0.038       .   A
C348       C352 0.043       .   A
C348       H356 0.031       .   A
C348       H357 0.031       .   A
C352       H353 0.031       .   A
C352       H354 0.031       .   A
C352       H355 0.031       .   A
C358       C359 0.037       .   A
C358       H364 0.030       .   A
C359       C360 0.037       .   A
C359       H363 0.030       .   A
C360       C361 0.037       .   A
C361       C362 0.037       .   A
C361       H366 0.030       .   A
C362       H365 0.030       .   A
C315       C316 0.037       .   A
C315       C320 0.038       .   A
C316       C317 0.038       .   A
C316       H323 0.030       .   A
C317       C318 0.038       .   A
C317       C322 0.043       .   A
C318       C319 0.038       .   A
C318       C321 0.038       .   A
C319       C320 0.037       .   A
C319       F325 0.038       .   A
C320      Br324 0.053       .   A
C321       C332 0.038       .   A
C321       C336 0.038       .   A
C322       C326 0.043       .   A
C322       H330 0.031       .   A
C322       H331 0.031       .   A
C326       H327 0.031       .   A
C326       H328 0.031       .   A
C326       H329 0.031       .   A
C332       C333 0.037       .   A
C332       H338 0.030       .   A
C333       C334 0.037       .   A
C333       H337 0.030       .   A
C334       C335 0.037       .   A
C335       C336 0.037       .   A
C335       H340 0.030       .   A
C336       H339 0.030       .   A
C289       C290 0.037       .   A
C289       C294 0.038       .   A
C290       C291 0.038       .   A
C290       H297 0.030       .   A
C291       C292 0.038       .   A
C291       C296 0.043       .   A
C292       C293 0.038       .   A
C292       C295 0.038       .   A
C293       C294 0.037       .   A
C293       F299 0.038       .   A
C294      Br298 0.053       .   A
C295       C306 0.038       .   A
C295       C310 0.038       .   A
C296       C300 0.043       .   A
C296       H304 0.031       .   A
C296       H305 0.031       .   A
C300       H301 0.031       .   A
C300       H302 0.031       .   A
C300       H303 0.031       .   A
C306       C307 0.037       .   A
C306       H312 0.030       .   A
C307       C308 0.037       .   A
C307       H311 0.030       .   A
C308       C309 0.037       .   A
C309       C310 0.037       .   A
C309       H314 0.030       .   A
C310       H313 0.030       .   A
C263       C264 0.037       .   A
C263       C268 0.038       .   A
C264       C265 0.038       .   A
C264       H271 0.030       .   A
C265       C266 0.038       .   A
C265       C270 0.043       .   A
C266       C267 0.038       .   A
C266       C269 0.038       .   A
C267       C268 0.037       .   A
C267       F273 0.038       .   A
C268      Br272 0.053       .   A
C269       C280 0.038       .   A
C269       C284 0.038       .   A
C270       C274 0.043       .   A
C270       H278 0.031       .   A
C270       H279 0.031       .   A
C274       H275 0.031       .   A
C274       H276 0.031       .   A
C274       H277 0.031       .   A
C280       C281 0.037       .   A
C280       H286 0.030       .   A
C281       C282 0.037       .   A
C281       H285 0.030       .   A
C282       C283 0.037       .   A
C283       C284 0.037       .   A
C283       H288 0.030       .   A
C284       H287 0.030       .   A
C237       C238 0.037       .   A
C237       C242 0.038       .   A
C238       C239 0.038       .   A
C238       H245 0.030       .   A
C239       C240 0.038       .   A
C239       C244 0.043       .   A
C240       C241 0.038       .   A
C240       C243 0.038       .   A
C241       C242 0.037       .   A
C241       F247 0.038       .   A
C242      Br246 0.053       .   A
C243       C254 0.038       .   A
C243       C258 0.038       .   A
C244       C248 0.043       .   A
C244       H252 0.031       .   A
C244       H253 0.031       .   A
C248       H249 0.031       .   A
C248       H250 0.031       .   A
C248       H251 0.031       .   A
C254       C255 0.037       .   A
C254       H260 0.030       .   A
C255       C256 0.037       .   A
C255       H259 0.030       .   A
C256       C257 0.037       .   A
C257       C258 0.037       .   A
C257       H262 0.030       .   A
C258       H261 0.030       .   A
C211       C212 0.037       .   A
C211       C216 0.038       .   A
C212       C213 0.038       .   A
C212       H219 0.030       .   A
C213       C214 0.038       .   A
C213       C218 0.043       .   A
C214       C215 0.038       .   A
C214       C217 0.038       .   A
C215       C216 0.037       .   A
C215       F221 0.038       .   A
C216      Br220 0.053       .   A
C217       C228 0.038       .   A
C217       C232 0.038       .   A
C218       C222 0.043       .   A
C218       H226 0.031       .   A
C218       H227 0.031       .   A
C222       H223 0.031       .   A
C222       H224 0.031       .   A
C222       H225 0.031       .   A
C228       C229 0.037       .   A
C228       H234 0.030       .   A
C229       C230 0.037       .   A
C229       H233 0.030       .   A
C230       C231 0.037       .   A
C231       C232 0.037       .   A
C231       H236 0.030       .   A
C232       H235 0.030       .   A
C185       C186 0.037       .   A
C185       C190 0.038       .   A
C186       C187 0.038       .   A
C186       H193 0.030       .   A
C187       C188 0.038       .   A
C187       C192 0.043       .   A
C188       C189 0.038       .   A
C188       C191 0.038       .   A
C189       C190 0.037       .   A
C189       F195 0.038       .   A
C190      Br194 0.053       .   A
C191       C202 0.038       .   A
C191       C206 0.038       .   A
C192       C196 0.043       .   A
C192       H200 0.031       .   A
C192       H201 0.031       .   A
C196       H197 0.031       .   A
C196       H198 0.031       .   A
C196       H199 0.031       .   A
C202       C203 0.037       .   A
C202       H208 0.030       .   A
C203       C204 0.037       .   A
C203       H207 0.030       .   A
C204       C205 0.037       .   A
C205       C206 0.037       .   A
C205       H210 0.030       .   A
C206       H209 0.030       .   A
