data_pcu_v1-6c_Zn_1_Ch_1-55_fer_tobacco
_audit_creation_date              2021-02-03
_audit_creation_method            'tobacco_3.0'
_symmetry_space_group_name_H-M    'P1'
_symmetry_Int_Tables_number       1
_symmetry_cell_setting            triclinic
loop_
_symmetry_equiv_pos_as_xyz
  x,y,z
_cell_length_a                    43.65466282957418
_cell_length_b                    43.65466282957418
_cell_length_c                    43.65466282957418
_cell_angle_alpha                 90.0
_cell_angle_beta                  90.0
_cell_angle_gamma                 90.0
loop_
_atom_site_label
_atom_site_type_symbol
_atom_site_fract_x
_atom_site_fract_y
_atom_site_fract_z
_atom_site_charge
Zn1       Zn   -0.0256833962   -0.0256833962    0.0256833962          1.4972
Zn2       Zn    0.0256833962    0.0256833962    0.0256833962          1.4936
Zn3       Zn    0.0256833962   -0.0256833962   -0.0256833962          1.4911
Zn4       Zn   -0.0256833962    0.0256833962   -0.0256833962          1.4948
O5         O    0.0000000000    0.0000000000    0.0000000000         -2.2224
O6         O   -0.0188754178   -0.0188754178    0.0686432973         -1.1287
O7         O    0.0686432973    0.0188754178    0.0188754178         -1.1269
O8         O    0.0188754178   -0.0686432973   -0.0188754178         -1.1221
O9         O    0.0188754178    0.0188754178    0.0686432973         -1.1289
O10        O   -0.0188754178   -0.0686432973    0.0188754178         -1.1248
O11        O    0.0686432973   -0.0188754178   -0.0188754178         -1.1307
O12        O   -0.0188754178    0.0188754178   -0.0686432973         -1.1246
O13        O    0.0188754178    0.0686432973    0.0188754178         -1.1322
O14        O    0.0188754178   -0.0188754178   -0.0686432973         -1.1261
O15        O   -0.0188754178    0.0686432973   -0.0188754178         -1.1307
O16        O   -0.0686432973    0.0188754178   -0.0188754178         -1.1298
O17        O   -0.0686432973   -0.0188754178    0.0188754178         -1.1277
C18        C   -0.0000000000   -0.0000000000    0.0820714162          0.3902
C19        C    0.0820714162   -0.0000000000   -0.0000000000          0.3951
C20        C   -0.0000000000   -0.0820714162    0.0000000000          0.3847
C21        C    0.0000000000    0.0000000000   -0.0820714162          0.3884
C22        C    0.0000000000    0.0820714162   -0.0000000000          0.3998
C23        C   -0.0820714162    0.0000000000    0.0000000000          0.3903
Zn24      Zn    0.9743166038    0.0256833962    0.4743166038          1.4972
Zn25      Zn    1.0256833962   -0.0256833962    0.4743166038          1.4936
Zn26      Zn    1.0256833962    0.0256833962    0.5256833962          1.4911
Zn27      Zn    0.9743166038   -0.0256833962    0.5256833962          1.4948
O28        O    1.0000000000    0.0000000000    0.5000000000         -2.2224
O29        O    0.9811245822    0.0188754178    0.4313567027         -1.1287
O30        O    1.0686432973   -0.0188754178    0.4811245822         -1.1269
O31        O    1.0188754178    0.0686432973    0.5188754178         -1.1221
O32        O    1.0188754178   -0.0188754178    0.4313567027         -1.1289
O33        O    0.9811245822    0.0686432973    0.4811245822         -1.1248
O34        O    1.0686432973    0.0188754178    0.5188754178         -1.1307
O35        O    0.9811245822   -0.0188754178    0.5686432973         -1.1246
O36        O    1.0188754178   -0.0686432973    0.4811245822         -1.1322
O37        O    1.0188754178    0.0188754178    0.5686432973         -1.1261
O38        O    0.9811245822   -0.0686432973    0.5188754178         -1.1307
O39        O    0.9313567027   -0.0188754178    0.5188754178         -1.1298
O40        O    0.9313567027    0.0188754178    0.4811245822         -1.1277
C41        C    1.0000000000    0.0000000000    0.4179285838          0.3902
C42        C    1.0820714162    0.0000000000    0.5000000000          0.3951
C43        C    1.0000000000    0.0820714162    0.5000000000          0.3847
C44        C    1.0000000000    0.0000000000    0.5820714162          0.3884
C45        C    1.0000000000   -0.0820714162    0.5000000000          0.3998
C46        C    0.9179285838    0.0000000000    0.5000000000          0.3903
Zn47      Zn    0.9743166038    0.4743166038    0.0256833962          1.4972
Zn48      Zn    1.0256833962    0.5256833962    0.0256833962          1.4936
Zn49      Zn    1.0256833962    0.4743166038   -0.0256833962          1.4911
Zn50      Zn    0.9743166038    0.5256833962   -0.0256833962          1.4948
O51        O    1.0000000000    0.5000000000    0.0000000000         -2.2224
O52        O    0.9811245822    0.4811245822    0.0686432973         -1.1287
O53        O    1.0686432973    0.5188754178    0.0188754178         -1.1269
O54        O    1.0188754178    0.4313567027   -0.0188754178         -1.1221
O55        O    1.0188754178    0.5188754178    0.0686432973         -1.1289
O56        O    0.9811245822    0.4313567027    0.0188754178         -1.1248
O57        O    1.0686432973    0.4811245822   -0.0188754178         -1.1307
O58        O    0.9811245822    0.5188754178   -0.0686432973         -1.1246
O59        O    1.0188754178    0.5686432973    0.0188754178         -1.1322
O60        O    1.0188754178    0.4811245822   -0.0686432973         -1.1261
O61        O    0.9811245822    0.5686432973   -0.0188754178         -1.1307
O62        O    0.9313567027    0.5188754178   -0.0188754178         -1.1298
O63        O    0.9313567027    0.4811245822    0.0188754178         -1.1277
C64        C    1.0000000000    0.5000000000    0.0820714162          0.3902
C65        C    1.0820714162    0.5000000000    0.0000000000          0.3951
C66        C    1.0000000000    0.4179285838    0.0000000000          0.3847
C67        C    1.0000000000    0.5000000000   -0.0820714162          0.3884
C68        C    1.0000000000    0.5820714162    0.0000000000          0.3998
C69        C    0.9179285838    0.5000000000    0.0000000000          0.3903
Zn70      Zn    1.0256833962    0.5256833962    0.4743166038          1.4972
Zn71      Zn    0.9743166038    0.5256833962    0.5256833962          1.4936
Zn72      Zn    0.9743166038    0.4743166038    0.4743166038          1.4911
Zn73      Zn    1.0256833962    0.4743166038    0.5256833962          1.4948
O74        O    1.0000000000    0.5000000000    0.5000000000         -2.2224
O75        O    1.0188754178    0.5686432973    0.4811245822         -1.1287
O76        O    0.9313567027    0.5188754178    0.5188754178         -1.1269
O77        O    0.9811245822    0.4811245822    0.4313567027         -1.1221
O78        O    0.9811245822    0.5686432973    0.5188754178         -1.1289
O79        O    1.0188754178    0.5188754178    0.4313567027         -1.1248
O80        O    0.9313567027    0.4811245822    0.4811245822         -1.1307
O81        O    1.0188754178    0.4313567027    0.5188754178         -1.1246
O82        O    0.9811245822    0.5188754178    0.5686432973         -1.1322
O83        O    0.9811245822    0.4313567027    0.4811245822         -1.1261
O84        O    1.0188754178    0.4811245822    0.5686432973         -1.1307
O85        O    1.0686432973    0.4811245822    0.5188754178         -1.1298
O86        O    1.0686432973    0.5188754178    0.4811245822         -1.1277
C87        C    1.0000000000    0.5820714162    0.5000000000          0.3902
C88        C    0.9179285838    0.5000000000    0.5000000000          0.3951
C89        C    1.0000000000    0.5000000000    0.4179285838          0.3847
C90        C    1.0000000000    0.4179285838    0.5000000000          0.3884
C91        C    1.0000000000    0.5000000000    0.5820714162          0.3998
C92        C    1.0820714162    0.5000000000    0.5000000000          0.3903
Zn93      Zn    0.4743166038    0.9743166038   -0.0256833962          1.4972
Zn94      Zn    0.4743166038    1.0256833962    0.0256833962          1.4936
Zn95      Zn    0.5256833962    0.9743166038    0.0256833962          1.4911
Zn96      Zn    0.5256833962    1.0256833962   -0.0256833962          1.4948
O97        O    0.5000000000    1.0000000000    0.0000000000         -2.2224
O98        O    0.4313567027    0.9811245822   -0.0188754178         -1.1287
O99        O    0.4811245822    1.0188754178    0.0686432973         -1.1269
O100       O    0.5188754178    0.9313567027    0.0188754178         -1.1221
O101       O    0.4313567027    1.0188754178    0.0188754178         -1.1289
O102       O    0.4811245822    0.9313567027   -0.0188754178         -1.1248
O103       O    0.5188754178    0.9811245822    0.0686432973         -1.1307
O104       O    0.5686432973    1.0188754178   -0.0188754178         -1.1246
O105       O    0.4811245822    1.0686432973    0.0188754178         -1.1322
O106       O    0.5686432973    0.9811245822    0.0188754178         -1.1261
O107       O    0.5188754178    1.0686432973   -0.0188754178         -1.1307
O108       O    0.5188754178    1.0188754178   -0.0686432973         -1.1298
O109       O    0.4811245822    0.9811245822   -0.0686432973         -1.1277
C110       C    0.4179285838    1.0000000000    0.0000000000          0.3902
C111       C    0.5000000000    1.0000000000    0.0820714162          0.3951
C112       C    0.5000000000    0.9179285838    0.0000000000          0.3847
C113       C    0.5820714162    1.0000000000    0.0000000000          0.3884
C114       C    0.5000000000    1.0820714162    0.0000000000          0.3998
C115       C    0.5000000000    1.0000000000   -0.0820714162          0.3903
Zn116     Zn    0.4743166038    1.0256833962    0.5256833962          1.4972
Zn117     Zn    0.4743166038    0.9743166038    0.4743166038          1.4936
Zn118     Zn    0.5256833962    1.0256833962    0.4743166038          1.4911
Zn119     Zn    0.5256833962    0.9743166038    0.5256833962          1.4948
O120       O    0.5000000000    1.0000000000    0.5000000000         -2.2224
O121       O    0.4313567027    1.0188754178    0.5188754178         -1.1287
O122       O    0.4811245822    0.9811245822    0.4313567027         -1.1269
O123       O    0.5188754178    1.0686432973    0.4811245822         -1.1221
O124       O    0.4313567027    0.9811245822    0.4811245822         -1.1289
O125       O    0.4811245822    1.0686432973    0.5188754178         -1.1248
O126       O    0.5188754178    1.0188754178    0.4313567027         -1.1307
O127       O    0.5686432973    0.9811245822    0.5188754178         -1.1246
O128       O    0.4811245822    0.9313567027    0.4811245822         -1.1322
O129       O    0.5686432973    1.0188754178    0.4811245822         -1.1261
O130       O    0.5188754178    0.9313567027    0.5188754178         -1.1307
O131       O    0.5188754178    0.9811245822    0.5686432973         -1.1298
O132       O    0.4811245822    1.0188754178    0.5686432973         -1.1277
C133       C    0.4179285838    1.0000000000    0.5000000000          0.3902
C134       C    0.5000000000    1.0000000000    0.4179285838          0.3951
C135       C    0.5000000000    1.0820714162    0.5000000000          0.3847
C136       C    0.5820714162    1.0000000000    0.5000000000          0.3884
C137       C    0.5000000000    0.9179285838    0.5000000000          0.3998
C138       C    0.5000000000    1.0000000000    0.5820714162          0.3903
Zn139     Zn    0.4743166038    0.5256833962   -0.0256833962          1.4972
Zn140     Zn    0.4743166038    0.4743166038    0.0256833962          1.4936
Zn141     Zn    0.5256833962    0.4743166038   -0.0256833962          1.4911
Zn142     Zn    0.5256833962    0.5256833962    0.0256833962          1.4948
O143       O    0.5000000000    0.5000000000    0.0000000000         -2.2224
O144       O    0.4313567027    0.5188754178   -0.0188754178         -1.1287
O145       O    0.4811245822    0.4313567027    0.0188754178         -1.1269
O146       O    0.5188754178    0.4811245822   -0.0686432973         -1.1221
O147       O    0.4313567027    0.4811245822    0.0188754178         -1.1289
O148       O    0.4811245822    0.5188754178   -0.0686432973         -1.1248
O149       O    0.5188754178    0.4313567027   -0.0188754178         -1.1307
O150       O    0.5686432973    0.5188754178    0.0188754178         -1.1246
O151       O    0.4811245822    0.4811245822    0.0686432973         -1.1322
O152       O    0.5686432973    0.4811245822   -0.0188754178         -1.1261
O153       O    0.5188754178    0.5188754178    0.0686432973         -1.1307
O154       O    0.5188754178    0.5686432973    0.0188754178         -1.1298
O155       O    0.4811245822    0.5686432973   -0.0188754178         -1.1277
C156       C    0.4179285838    0.5000000000    0.0000000000          0.3902
C157       C    0.5000000000    0.4179285838    0.0000000000          0.3951
C158       C    0.5000000000    0.5000000000   -0.0820714162          0.3847
C159       C    0.5820714162    0.5000000000    0.0000000000          0.3884
C160       C    0.5000000000    0.5000000000    0.0820714162          0.3998
C161       C    0.5000000000    0.5820714162    0.0000000000          0.3903
Zn162     Zn    0.4743166038    0.5256833962    0.4743166038          1.4972
Zn163     Zn    0.4743166038    0.4743166038    0.5256833962          1.4936
Zn164     Zn    0.5256833962    0.4743166038    0.4743166038          1.4911
Zn165     Zn    0.5256833962    0.5256833962    0.5256833962          1.4948
O166       O    0.5000000000    0.5000000000    0.5000000000         -2.2224
O167       O    0.4313567027    0.5188754178    0.4811245822         -1.1287
O168       O    0.4811245822    0.4313567027    0.5188754178         -1.1269
O169       O    0.5188754178    0.4811245822    0.4313567027         -1.1221
O170       O    0.4313567027    0.4811245822    0.5188754178         -1.1289
O171       O    0.4811245822    0.5188754178    0.4313567027         -1.1248
O172       O    0.5188754178    0.4313567027    0.4811245822         -1.1307
O173       O    0.5686432973    0.5188754178    0.5188754178         -1.1246
O174       O    0.4811245822    0.4811245822    0.5686432973         -1.1322
O175       O    0.5686432973    0.4811245822    0.4811245822         -1.1261
O176       O    0.5188754178    0.5188754178    0.5686432973         -1.1283
O177       O    0.5188754178    0.5686432973    0.5188754178         -1.1298
O178       O    0.4811245822    0.5686432973    0.4811245822         -1.1277
C179       C    0.4179285838    0.5000000000    0.5000000000          0.3902
C180       C    0.5000000000    0.4179285838    0.5000000000          0.3951
C181       C    0.5000000000    0.5000000000    0.4179285838          0.3847
C182       C    0.5820714162    0.5000000000    0.5000000000          0.3884
C183       C    0.5000000000    0.5000000000    0.5820714162          0.3998
C184       C    0.5000000000    0.5820714162    0.5000000000          0.3903
C875       C    0.5000000000    0.5000000000   -0.3826517108          0.6108
C876       C    0.4940827843    0.4780464691   -0.3612682608          0.6066
C877       C    0.4949952900    0.4828398511   -0.3307309454          0.6081
C878       C    0.5022837978    0.5100613958   -0.3182263151          0.6143
C879       C    0.5080184084    0.5318022454   -0.3396339735         -0.3816
C880       C    0.5068181943    0.5275852175   -0.3705356410         -0.3834
N881       N    0.5050459323    0.5167677664   -0.2883940708         -0.3826
H882       H    0.4901845831    0.4633697526   -0.3159362116          0.6046
H883       H    0.4883349194    0.4547981492   -0.3681285355          0.6017
C884       C    0.5133501027    0.5545266447   -0.3916015789         -0.3787
H885       H    0.5140619392    0.5544863587   -0.3312999271         -0.3765
N886       N    0.4934354872    0.4979632058   -0.2683920644          0.6086
C887       C    0.5066825760    0.4965853359   -0.2353321404           -0.38
C888       C    0.4939082170    0.5176621521   -0.2089618107          0.6106
C889       C    0.5047896571    0.5013346065   -0.1784485447           -0.38
N890       N    0.4981615083    0.4692457677   -0.1869421764          0.6144
N891       N    0.5028452992    0.4660980537   -0.2204731645         -0.3827
C892       C    0.4926645009    0.5118791496   -0.1458452598          0.6113
H893       H    0.5214193881    0.4522994059   -0.2235303381          -0.368
H894       H    0.4755076120    0.4643841242   -0.1841383747          0.5964
H895       H    0.5029479502    0.5409127115   -0.2107781374         -0.3822
H896       H    0.5297214496    0.5036055320   -0.1778188949           -0.36
H897       H    0.4689095429    0.5185780157   -0.2099547294          0.5906
H898       H    0.5315043415    0.5006209581   -0.2370486696         -0.3602
H899       H    0.5324665822    0.5494282496   -0.4069173091         -0.3638
H900       H    0.4932431790    0.5596402023   -0.4056240774          0.6049
H901       H    0.5191366017    0.5752254925   -0.3787986631         -0.3737
C902       C    0.5000000000    0.5000000000   -0.1173482892         -0.3822
H903       H    0.5148351532    0.4799689689   -0.1162680247         -0.3703
H904       H    0.4781643661    0.5321054767   -0.1466638135          0.5997
C845       C    0.5000000000    0.5000000000    0.3826517108          0.6108
C846       C    0.5060310325    0.4780774635    0.3612682608          0.6066
C847       C    0.5050936707    0.4828660468    0.3307309454          0.6081
C848       C    0.4976640338    0.5100494119    0.3182263151          0.6143
C849       C    0.4918167073    0.5317602173    0.3396339735         -0.3816
C850       C    0.4930387834    0.5275494730    0.3705356410         -0.3834
N851       N    0.4948671433    0.5167413621    0.2883940708         -0.3826
H852       H    0.5100053250    0.4634211686    0.3159362116          0.6046
H853       H    0.5118994339    0.4548592768    0.3681285355          0.6017
C854       C    0.4863671889    0.5544566496    0.3916015789         -0.3787
H855       H    0.4856555711    0.5544126711    0.3312999271         -0.3765
N856       N    0.5065749914    0.4979972904    0.2683920644          0.6086
C857       C    0.4933352294    0.4965507122    0.2353321404           -0.38
C858       C    0.5060000685    0.5176935190    0.2089618107          0.6106
C859       C    0.4952034833    0.5013097395    0.1784485447           -0.38
N860       N    0.5019980221    0.4692557199    0.1869421764          0.6144
N861       N    0.4973306247    0.4660837483    0.2204731645         -0.3827
C862       C    0.5072737705    0.5119170468    0.1458452598          0.6113
H863       H    0.4788283741    0.4521889226    0.2235303381          -0.368
H864       H    0.5246768360    0.4645116717    0.1841383747          0.5964
H865       H    0.4968398315    0.5408968667    0.2107781374         -0.3822
H866       H    0.4702602446    0.5034512865    0.1778188949           -0.36
H867       H    0.5309936547    0.5187390651    0.2099547294          0.5906
H868       H    0.4684928609    0.5004575031    0.2370486696         -0.3602
H869       H    0.4672774176    0.5492591455    0.4069173091         -0.3638
H870       H    0.5064473126    0.5596744545    0.4056240774          0.6049
H871       H    0.4804733808    0.5751251981    0.3787986631         -0.3737
C872       C    0.5000000000    0.5000000000    0.1173482892         -0.3822
H873       H    0.4852689688    0.4798922727    0.1162680247         -0.3703
H874       H    0.5216687746    0.5322183294    0.1466638135          0.5997
C815       C    0.5000000000    0.8826517108    0.5000000000          0.6108
C816       C    0.5227314603    0.8612682608    0.5005016686          0.6066
C817       C    0.5178750399    0.8307309454    0.5000280049          0.6081
C818       C    0.4897025766    0.8182263151    0.4993593056          0.6143
C819       C    0.4672265987    0.8396339735    0.4987422824         -0.3816
C820       C    0.4716109559    0.8705356410    0.4987776353         -0.3834
N821       N    0.4824898733    0.7883940708    0.5001220009         -0.3826
H822       H    0.5379120176    0.8159362116    0.5008923882          0.6046
H823       H    0.5466576851    0.8681285355    0.5015303061          0.6017
C824       C    0.4439202563    0.8916015789    0.4974617788         -0.3787
H825       H    0.4437585409    0.8312999271    0.4981561723         -0.3765
N826       N    0.5038022586    0.7683920644    0.4942742522          0.6086
C827       C    0.5013955378    0.7353321404    0.5073735492           -0.38
C828       C    0.4847667685    0.7089618107    0.4891828796          0.6106
C829       C    0.4973711342    0.6784485447    0.5042203145           -0.38
N830       N    0.5300282012    0.6869421764    0.5068927489          0.6144
N831       N    0.5317302141    0.7204731645    0.5122731907         -0.3827
C832       C    0.4906660257    0.6458452598    0.4896172901          0.6113
H833       H    0.5397425605    0.7235303381    0.5339803729          -0.368
H834       H    0.5410700313    0.6841383747    0.4865233458          0.5964
H835       H    0.4599117783    0.7107781374    0.4913123740         -0.3822
H836       H    0.4881740699    0.6778188949    0.5275047597           -0.36
H837       H    0.4909247272    0.7099547294    0.4649372189          0.5906
H838       H    0.4905361030    0.7370486696    0.5300556779         -0.3602
H839       H    0.4434314676    0.9069173091    0.5172404164         -0.3638
H840       H    0.4446732923    0.9056240774    0.4767284773          0.6049
H841       H    0.4224295411    0.8787986631    0.4971878554         -0.3737
C842       C    0.5000000000    0.6173482892    0.5000000000         -0.3822
H843       H    0.5150451845    0.6162680247    0.5198737616         -0.3703
H844       H    0.4753391387    0.6466638135    0.4700100273          0.5997
C785       C    0.5000000000    1.1173482892    0.5000000000          0.6108
C786       C    0.5210563747    1.1387317392    0.5085790467          0.6066
C787       C    0.5164120889    1.1692690546    0.5070824552          0.6081
C788       C    0.4902969892    1.1817736849    0.4964930070          0.6143
C789       C    0.4694291566    1.1603660265    0.4881213967         -0.3816
C790       C    0.4734660106    1.1294643590    0.4898324335         -0.3834
N791       N    0.4839823822    1.2116059292    0.4929250200         -0.3826
H792       H    0.5351404213    1.1840637884    0.5142572167          0.6046
H793       H    0.5434185396    1.1318714645    0.5171496892          0.6017
C794       C    0.4475355982    1.1083984211    0.4800283510         -0.3787
H795       H    0.4476633499    1.1687000729    0.4793269141         -0.3765
N796       N    0.5012118118    1.2316079356    0.5067655651          0.6086
C797       C    0.5042126031    1.2646678596    0.4937894663           -0.38
C798       C    0.4817214825    1.2910381893    0.5038674584          0.6106
C799       C    0.4992661682    1.3215514553    0.4950823298           -0.38
N800       N    0.5302928443    1.3130578236    0.5056166214          0.6144
N801       N    0.5339940737    1.2795268355    0.5013567032         -0.3827
C802       C    0.4873069969    1.3541547402    0.5058147583          0.6113
H803       H    0.5499777045    1.2764696619    0.4846258035          -0.368
H804       H    0.5323240423    1.3158616253    0.5286971072          0.5964
H805       H    0.4597630001    1.2892218626    0.4920297925         -0.3822
H806       H    0.5000867946    1.3221811051    0.4700607800           -0.36
H807       H    0.4777301392    1.2900452706    0.5285624315          0.5906
H808       H    0.5032684325    1.2629513304    0.4686595075         -0.3602
H809       H    0.4549522494    1.0930826909    0.4616864126         -0.3638
H810       H    0.4399817732    1.0943759226    0.4993513057          0.6049
H811       H    0.4277082137    1.1212013369    0.4717337325         -0.3737
C812       C    0.5000000000    1.3826517108    0.5000000000         -0.3822
H813       H    0.5217074229    1.3837319753    0.4877479892         -0.3703
H814       H    0.4654470779    1.3533361865    0.5177102263          0.5997
C755       C    0.5000000000    0.6173482892    0.0000000000          0.6108
C756       C    0.5175743046    0.6387317392    0.0144261838          0.6066
C757       C    0.5135809535    0.6692690546    0.0116222001          0.6081
C758       C    0.4917694798    0.6817736849   -0.0062214110          0.6143
C759       C    0.4743138832    0.6603660265   -0.0203936531         -0.3816
C760       C    0.4776635485    0.6294643590   -0.0175645932         -0.3834
N761       N    0.4867936357    0.7116059292   -0.0114983201         -0.3826
H762       H    0.5293470809    0.6840637884    0.0240180408          0.6046
H763       H    0.5363983955    0.6318714645    0.0292307753          0.6017
C764       C    0.4557960683    0.6083984211   -0.0346033617         -0.3787
H765       H    0.4561256807    0.6687000729   -0.0352355719         -0.3765
N766       N    0.4991553297    0.7316079356    0.0068211356          0.6086
C767       C    0.5058618510    0.7646678596   -0.0046856650           -0.38
C768       C    0.4813957050    0.7910381893   -0.0017151216          0.6106
C769       C    0.5007543741    0.8215514553   -0.0049145610           -0.38
N770       N    0.5272737408    0.8130578236    0.0143298959          0.6144
N771       N    0.5320698593    0.7795268355    0.0113561358         -0.3827
C772       C    0.4861547411    0.8541547402    0.0017979287          0.6113
H773       H    0.5522888694    0.7764696619    0.0001048654          -0.368
H774       H    0.5223835169    0.8158616253    0.0369776398          0.5964
H775       H    0.4639240568    0.7892218626   -0.0195209296         -0.3822
H776       H    0.5089431176    0.8221811051   -0.0285724531           -0.36
H777       H    0.4702749190    0.7900452706    0.0206924805          0.5906
H778       H    0.5123969315    0.7629513304   -0.0289693840         -0.3602
H779       H    0.4683086141    0.5930826909   -0.0499288181         -0.3638
H780       H    0.4428621711    0.5943759226   -0.0183814272          0.6049
H781       H    0.4393115295    0.6212013369   -0.0483941504         -0.3737
C782       C    0.5000000000    0.8826517108    0.0000000000         -0.3822
H783       H    0.5243609318    0.8837319753   -0.0052791077         -0.3703
H784       H    0.4617536592    0.8533361865    0.0066913346          0.5997
C725       C    0.5000000000    1.1173482892    0.0000000000          0.6108
C726       C    0.5165718318    1.1387317392    0.0155674452          0.6066
C727       C    0.5127746178    1.1692690546    0.0125030786          0.6081
C728       C    0.4922032584    1.1817736849   -0.0067570879          0.6143
C729       C    0.4757329136    1.1603660265   -0.0220632319         -0.3816
C730       C    0.4788862041    1.1294643590   -0.0190168247         -0.3834
N731       N    0.4875908639    1.2116059292   -0.0123544633         -0.3826
H732       H    0.5276778759    1.1840637884    0.0259239778          0.6046
H733       H    0.5343653941    1.1318714645    0.0315959034          0.6017
C734       C    0.4582052228    1.1083984211   -0.0374776843         -0.3787
H735       H    0.4585763130    1.1687000729   -0.0380864750         -0.3765
N736       N    0.4987017598    1.2316079356    0.0067495134          0.6086
C737       C    0.5061616363    1.2646678596   -0.0042838057           -0.38
C738       C    0.4815517444    1.2910381893   -0.0029535238          0.6106
C739       C    0.5010808414    1.3215514553   -0.0048532228           -0.38
N740       N    0.5262560512    1.3130578236    0.0161190146          0.6144
N741       N    0.5312400276    1.2795268355    0.0134721332         -0.3827
C742       C    0.4860655896    1.3541547402    0.0008694528          0.6113
H743       H    0.5521651753    1.2764696619    0.0035960181          -0.368
H744       H    0.5198645254    1.3158616253    0.0383896901          0.5964
H745       H    0.4653080013    1.2892218626   -0.0218861965         -0.3822
H746       H    0.5108309743    1.3221811051   -0.0279115464           -0.36
H747       H    0.4689595956    1.2900452706    0.0186615244          0.5906
H748       H    0.5143035839    1.2629513304   -0.0280769765         -0.3602
H749       H    0.4717131427    1.0930826909   -0.0519334624         -0.3638
H750       H    0.4442170332    1.0943759226   -0.0221555629          0.6049
H751       H    0.4426782988    1.1212013369   -0.0523383876         -0.3737
C752       C    0.5000000000    1.3826517108    0.0000000000         -0.3822
H753       H    0.5246590579    1.3837319753   -0.0036407195         -0.3703
H754       H    0.4613922249    1.3533361865    0.0041226505          0.5997
C695       C    0.5000000000    1.0000000000   -0.3826517108          0.6108
C696       C    0.5059172157    1.0219535309   -0.3612682608          0.6066
C697       C    0.5050047100    1.0171601489   -0.3307309454          0.6081
C698       C    0.4977162022    0.9899386042   -0.3182263151          0.6143
C699       C    0.4919815916    0.9681977546   -0.3396339735         -0.3816
C700       C    0.4931818057    0.9724147825   -0.3705356410         -0.3834
N701       N    0.4949540677    0.9832322336   -0.2883940708         -0.3826
H702       H    0.5098154169    1.0366302474   -0.3159362116          0.6046
H703       H    0.5116650806    1.0452018508   -0.3681285355          0.6017
C704       C    0.4866498973    0.9454733553   -0.3916015789         -0.3787
H705       H    0.4859380608    0.9455136413   -0.3312999271         -0.3765
N706       N    0.5065645128    1.0020367942   -0.2683920644          0.6086
C707       C    0.4933174240    1.0034146641   -0.2353321404           -0.38
C708       C    0.5060917830    0.9823378479   -0.2089618107          0.6106
C709       C    0.4952103429    0.9986653935   -0.1784485447           -0.38
N710       N    0.5018384917    1.0307542323   -0.1869421764          0.6144
N711       N    0.4971547008    1.0339019463   -0.2204731645         -0.3827
C712       C    0.5073354991    0.9881208504   -0.1458452598          0.6113
H713       H    0.4785806119    1.0477005941   -0.2235303381          -0.368
H714       H    0.5244923880    1.0356158758   -0.1841383747          0.5964
H715       H    0.4970520498    0.9590872885   -0.2107781374         -0.3822
H716       H    0.4702785504    0.9963944680   -0.1778188949           -0.36
H717       H    0.5310904571    0.9814219843   -0.2099547294          0.5906
H718       H    0.4684956585    0.9993790419   -0.2370486696         -0.3602
H719       H    0.4675334178    0.9505717504   -0.4069173091         -0.3638
H720       H    0.5067568210    0.9403597977   -0.4056240774          0.6049
H721       H    0.4808633983    0.9247745075   -0.3787986631         -0.3737
C722       C    0.5000000000    1.0000000000   -0.1173482892         -0.3822
H723       H    0.4851648468    1.0200310311   -0.1162680247         -0.3703
H724       H    0.5218356339    0.9678945233   -0.1466638135          0.5997
C665       C    0.5000000000    1.0000000000    0.3826517108          0.6108
C666       C    0.4780386174    0.9941119925    0.3612682608          0.6066
C667       C    0.4828332089    0.9950181211    0.3307309454          0.6081
C668       C    0.5100644248    1.0022704119    0.3182263151          0.6143
C669       C    0.5318128835    1.0079760974    0.3396339735         -0.3816
C670       C    0.5275942628    1.0067814940    0.3705356410         -0.3834
N671       N    0.5167744637    1.0050236231    0.2883940708         -0.3826
H672       H    0.4633567283    0.9902333180    0.3159362116          0.6046
H673       H    0.4547826721    0.9883950580    0.3681285355          0.6017
C674       C    0.5545443549    1.0132775587    0.3916015789         -0.3787
H675       H    0.5545050159    1.0139894481    0.3312999271         -0.3765
N676       N    0.4979544754    0.9934382024    0.2683920644          0.6086
C677       C    0.4965942282    1.0066871124    0.2353321404           -0.38
C678       C    0.5176540331    0.9938847279    0.2089618107          0.6106
C679       C    0.5013409766    1.0047878776    0.1784485447           -0.38
N680       N    0.4692433494    0.9982024197    0.1869421764          0.6144
N681       N    0.4661018685    1.0028903936    0.2204731645         -0.3827
C682       C    0.5118693812    0.9926487055    0.1458452598          0.6113
H683       H    0.4523279406    1.0214828213    0.2235303381          -0.368
H684       H    0.4643515756    0.9755550105    0.1841383747          0.5964
H685       H    0.5409165967    1.0028935248    0.2107781374         -0.3822
H686       H    0.5036450647    1.0297166272    0.1778188949           -0.36
H687       H    0.5185366423    0.9688848576    0.2099547294          0.5906
H688       H    0.5006628652    1.0315034876    0.2370486696         -0.3602
H689       H    0.5494713934    1.0324008032    0.4069173091         -0.3638
H690       H    0.5596311615    0.9931638506    0.4056240774          0.6049
H691       H    0.5752508818    1.0190365186    0.3787986631         -0.3737
C692       C    0.5000000000    1.0000000000    0.1173482892         -0.3822
H693       H    0.4799887206    1.0148617857    0.1162680247         -0.3703
H694       H    0.5320764022    0.9781216782    0.1466638135          0.5997
C635       C    0.8826517108    0.5000000000    0.5000000000          0.6108
C636       C    0.8612682608    0.4801022841    0.5110023571          0.6066
C637       C    0.8307309454    0.4841830729    0.5083272235          0.6081
C638       C    0.8182263151    0.5088216991    0.4946497624          0.6143
C639       C    0.8396339735    0.5284395838    0.4836639125         -0.3816
C640       C    0.8705356410    0.5245732667    0.4857316237         -0.3834
N641       N    0.7883940708    0.5155634374    0.4919751113         -0.3826
H642       H    0.8159362116    0.4668400306    0.5183992899          0.6046
H643       H    0.8681285355    0.4593912595    0.5230263243          0.6017
C644       C    0.8916015789    0.5484846633    0.4717048123         -0.3787
H645       H    0.8312999271    0.5489504016    0.4722446474         -0.3765
N646       N    0.7683920644    0.4939733235    0.4966953777          0.6086
C647       C    0.7353321404    0.5021889210    0.5071781180           -0.38
C648       C    0.7089618107    0.5084661491    0.4833450982          0.6106
C649       C    0.6784485447    0.5042883042    0.5025164334           -0.38
N650       N    0.6869421764    0.4766088384    0.5200513444          0.6144
N651       N    0.7204731645    0.4776006096    0.5256067374         -0.3827
C652       C    0.6458452598    0.5034436039    0.4864698362          0.6113
H653       H    0.7235303381    0.4805873039    0.5485518701          -0.368
H654       H    0.6841383747    0.4573693378    0.5071410304          0.5964
H655       H    0.7107781374    0.5314665360    0.4736865532         -0.3822
H656       H    0.6778188949    0.5232480510    0.5188651147           -0.36
H657       H    0.7099547294    0.4917513441    0.4647336014          0.5906
H658       H    0.7370486696    0.5223410864    0.5222212731         -0.3602
H659       H    0.9069173091    0.5581041160    0.4889935239         -0.3638
H660       H    0.9056240774    0.5381877832    0.4536933961          0.6049
H661       H    0.8787986631    0.5673893700    0.4614804328         -0.3737
C662       C    0.6173482892    0.5000000000    0.5000000000         -0.3822
H663       H    0.6162680247    0.4959069227    0.5245880193         -0.3703
H664       H    0.6466638135    0.5079099344    0.4619869828          0.5997
C605       C    1.1173482892    0.5000000000    0.5000000000          0.6108
C606       C    1.1387317392    0.5106952197    0.4799355231          0.6066
C607       C    1.1692690546    0.5080831259    0.4840569479          0.6081
C608       C    1.1817736849    0.4947859882    0.5089028927          0.6143
C609       C    1.1603660265    0.4841029726    0.5286873178         -0.3816
C610       C    1.1294643590    0.4861110124    0.5247896757         -0.3834
N611       N    1.2116059292    0.4922152769    0.5156849453         -0.3826
H612       H    1.1840637884    0.5178874314    0.4665611418          0.6046
H613       H    1.1318714645    0.5223994280    0.4590421309          0.6017
C614       C    1.1083984211    0.4724533879    0.5489138465         -0.3787
H615       H    1.1687000729    0.4730003178    0.5493712323         -0.3765
N616       N    1.2316079356    0.4966031351    0.4940248291          0.6086
C617       C    1.2646678596    0.5072109149    0.5020783312           -0.38
C618       C    1.2910381893    0.4834771945    0.5087211430          0.6106
C619       C    1.3215514553    0.5025820495    0.5042491188           -0.38
N620       N    1.3130578236    0.5196894421    0.4763034027          0.6144
N621       N    1.2795268355    0.5252594229    0.4772096676         -0.3827
C622       C    1.3541547402    0.4865243644    0.5036511623          0.6113
H623       H    1.2764696619    0.5482477519    0.4798433312          -0.368
H624       H    1.3158616253    0.5064849327    0.4572646128          0.5964
H625       H    1.2892218626    0.4741733177    0.5318672693         -0.3822
H626       H    1.3221811051    0.5192202200    0.5229553386           -0.36
H627       H    1.2900452706    0.4646109817    0.4922943804          0.5906
H628       H    1.2629513304    0.5225620415    0.5219968954         -0.3602
H629       H    1.0930826909    0.4898879128    0.5582664269         -0.3638
H630       H    1.0943759226    0.4542858313    0.5388950271          0.6049
H631       H    1.1212013369    0.4625207908    0.5679734737         -0.3737
C632       C    1.3826517108    0.5000000000    0.5000000000         -0.3822
H633       H    1.3837319753    0.5245222021    0.4955294764         -0.3703
H634       H    1.3533361865    0.4621130529    0.5084932787          0.5997
C575       C    0.8826517108    0.5000000000    0.0000000000          0.6108
C576       C    0.8612682608    0.4781460492    0.0062750136          0.6066
C577       C    0.8307309454    0.4827216489    0.0045800019          0.6081
C578       C    0.8182263151    0.5097946030   -0.0032424019          0.6143
C579       C    0.8396339735    0.5313721159   -0.0095638920         -0.3816
C580       C    0.8705356410    0.5271413685   -0.0084129731         -0.3834
N581       N    0.7883940708    0.5169636813   -0.0043419971         -0.3826
H582       H    0.8159362116    0.4635656975    0.0105194600          0.6046
H583       H    0.8681285355    0.4552709631    0.0133639319          0.6017
C584       C    0.8916015789    0.5535836122   -0.0167384802         -0.3787
H585       H    0.8312999271    0.5539168617   -0.0161081795         -0.3765
N586       N    0.7683920644    0.4948647524   -0.0045684341          0.6086
C587       C    0.7353321404    0.5005285939    0.0074858094           -0.38
C588       C    0.7089618107    0.5119755980   -0.0143403796          0.6106
C589       C    0.6784485447    0.5036171094    0.0034115259           -0.38
N590       N    0.6869421764    0.4727178310    0.0143138431          0.6144
N591       N    0.7204731645    0.4724423970    0.0199503436         -0.3827
C592       C    0.6458452598    0.5063815585   -0.0124177072          0.6113
H593       H    0.7235303381    0.4702233132    0.0429823893          -0.368
H594       H    0.6841383747    0.4568519277   -0.0025712895          0.5964
H595       H    0.7107781374    0.5365532193   -0.0186118921         -0.3822
H596       H    0.6778188949    0.5184415764    0.0235854338           -0.36
H597       H    0.7099547294    0.4998451711   -0.0362178854          0.5906
H598       H    0.7370486696    0.5168071880    0.0266538468         -0.3602
H599       H    0.9069173091    0.5590940623    0.0022633186         -0.3638
H600       H    0.9056240774    0.5475744695   -0.0365961502          0.6049
H601       H    0.8787986631    0.5742957488   -0.0224772321         -0.3737
C602       C    0.6173482892    0.5000000000    0.0000000000         -0.3822
H603       H    0.6162680247    0.4905130482    0.0230504169         -0.3703
H604       H    0.6466638135    0.5162088010   -0.0352821670          0.5997
C545       C    1.1173482892    0.5000000000    0.0000000000          0.6108
C546       C    1.1387317392    0.4897520047   -0.0202965404          0.6066
C547       C    1.1692690546    0.4916179936   -0.0157879638          0.6081
C548       C    1.1817736849    0.5042775146    0.0093888384          0.6143
C549       C    1.1603660265    0.5143035543    0.0295141664         -0.3816
C550       C    1.1294643590    0.5122727682    0.0256283273         -0.3834
N551       N    1.2116059292    0.5083427667    0.0153953781         -0.3826
H552       H    1.1840637884    0.4829573240   -0.0338771993          0.6046
H553       H    1.1318714645    0.4794071577   -0.0418953012          0.6017
C554       C    1.1083984211    0.5241345947    0.0506843325         -0.3787
H555       H    1.1687000729    0.5248234552    0.0505004702         -0.3765
N556       N    1.2316079356    0.4931587837   -0.0006626602          0.6086
C557       C    1.2646678596    0.5058508577   -0.0046993848           -0.38
C558       C    1.2910381893    0.4976181139    0.0185307327          0.6106
C559       C    1.3215514553    0.5049608129    0.0003351493           -0.38
N560       N    1.3130578236    0.4919604643   -0.0297417000          0.6144
N561       N    1.2795268355    0.4959082602   -0.0337741818         -0.3827
C562       C    1.3541547402    0.4952270326    0.0131203096          0.6113
H563       H    1.2764696619    0.5112966871   -0.0510541058          -0.368
H564       H    1.3158616253    0.4687913579   -0.0299063260          0.5964
H565       H    1.2892218626    0.5111868277    0.0394638475         -0.3822
H566       H    1.3221811051    0.5298348528   -0.0024991967           -0.36
H567       H    1.2900452706    0.4733251041    0.0244991658          0.5906
H568       H    1.2629513304    0.5309751722   -0.0057834098         -0.3602
H569       H    1.0930826909    0.5418191999    0.0418136979         -0.3638
H570       H    1.0943759226    0.5054832180    0.0597707510          0.6049
H571       H    1.1212013369    0.5340000473    0.0697788008         -0.3737
C572       C    1.3826517108    0.5000000000    0.0000000000         -0.3822
H573       H    1.3837319753    0.5104628470   -0.0226241643         -0.3703
H574       H    1.3533361865    0.4851318580    0.0358677417          0.5997
C515       C    1.0000000000    0.5000000000   -0.1173482892          0.6108
C516       C    1.0219613826    0.5058880075   -0.1387317392          0.6066
C517       C    1.0171667911    0.5049818789   -0.1692690546          0.6081
C518       C    0.9899355752    0.4977295881   -0.1817736849          0.6143
C519       C    0.9681871165    0.4920239026   -0.1603660265         -0.3816
C520       C    0.9724057372    0.4932185060   -0.1294643590         -0.3834
N521       N    0.9832255363    0.4949763769   -0.2116059292         -0.3826
H522       H    1.0366432717    0.5097666820   -0.1840637884          0.6046
H523       H    1.0452173279    0.5116049420   -0.1318714645          0.6017
C524       C    0.9454556451    0.4867224413   -0.1083984211         -0.3787
H525       H    0.9454949841    0.4860105519   -0.1687000729         -0.3765
N526       N    1.0020455246    0.5065617976   -0.2316079356          0.6086
C527       C    1.0034057718    0.4933128876   -0.2646678596           -0.38
C528       C    0.9823459669    0.5061152721   -0.2910381893          0.6106
C529       C    0.9986590234    0.4952121224   -0.3215514553           -0.38
N530       N    1.0307566506    0.5017975803   -0.3130578236          0.6144
N531       N    1.0338981315    0.4971096064   -0.2795268355         -0.3827
C532       C    0.9881306188    0.5073512945   -0.3541547402          0.6113
H533       H    1.0476720594    0.4785171787   -0.2764696619          -0.368
H534       H    1.0356484244    0.5244449895   -0.3158616253          0.5964
H535       H    0.9590834033    0.4971064752   -0.2892218626         -0.3822
H536       H    0.9963549353    0.4702833728   -0.3221811051           -0.36
H537       H    0.9814633577    0.5311151424   -0.2900452706          0.5906
H538       H    0.9993371348    0.4684965124   -0.2629513304         -0.3602
H539       H    0.9505286066    0.4675991968   -0.0930826909         -0.3638
H540       H    0.9403688385    0.5068361494   -0.0943759226          0.6049
H541       H    0.9247491182    0.4809634814   -0.1212013369         -0.3737
C542       C    1.0000000000    0.5000000000   -0.3826517108         -0.3822
H543       H    1.0200112794    0.4851382143   -0.3837319753         -0.3703
H544       H    0.9679235978    0.5218783218   -0.3533361865          0.5997
C485       C    1.0000000000    0.5000000000    0.1173482892          0.6108
C486       C    0.9780386174    0.5058880075    0.1387317392          0.6066
C487       C    0.9828332089    0.5049818789    0.1692690546          0.6081
C488       C    1.0100644248    0.4977295881    0.1817736849          0.6143
C489       C    1.0318128835    0.4920239026    0.1603660265         -0.3816
C490       C    1.0275942628    0.4932185060    0.1294643590         -0.3834
N491       N    1.0167744637    0.4949763769    0.2116059292         -0.3826
H492       H    0.9633567283    0.5097666820    0.1840637884          0.6046
H493       H    0.9547826721    0.5116049420    0.1318714645          0.6017
C494       C    1.0545443549    0.4867224413    0.1083984211         -0.3787
H495       H    1.0545050159    0.4860105519    0.1687000729         -0.3765
N496       N    0.9979544754    0.5065617976    0.2316079356          0.6086
C497       C    0.9965942282    0.4933128876    0.2646678596           -0.38
C498       C    1.0176540331    0.5061152721    0.2910381893          0.6106
C499       C    1.0013409766    0.4952121224    0.3215514553           -0.38
N500       N    0.9692433494    0.5017975803    0.3130578236          0.6144
N501       N    0.9661018685    0.4971096064    0.2795268355         -0.3827
C502       C    1.0118693812    0.5073512945    0.3541547402          0.6113
H503       H    0.9523279406    0.4785171787    0.2764696619          -0.368
H504       H    0.9643515756    0.5244449895    0.3158616253          0.5964
H505       H    1.0409165967    0.4971064752    0.2892218626         -0.3822
H506       H    1.0036450647    0.4702833728    0.3221811051           -0.36
H507       H    1.0185366423    0.5311151424    0.2900452706          0.5906
H508       H    1.0006628652    0.4684965124    0.2629513304         -0.3602
H509       H    1.0494713934    0.4675991968    0.0930826909         -0.3638
H510       H    1.0596311615    0.5068361494    0.0943759226          0.6049
H511       H    1.0752508818    0.4809634814    0.1212013369         -0.3737
C512       C    1.0000000000    0.5000000000    0.3826517108         -0.3822
H513       H    0.9799887206    0.4851382143    0.3837319753         -0.3703
H514       H    1.0320764022    0.5218783218    0.3533361865          0.5997
C455       C    1.0000000000   -0.1173482892    0.5000000000          0.6108
C456       C    1.0219613826   -0.1387317392    0.4941119925          0.6066
C457       C    1.0171667911   -0.1692690546    0.4950181211          0.6081
C458       C    0.9899355752   -0.1817736849    0.5022704119          0.6143
C459       C    0.9681871165   -0.1603660265    0.5079760974         -0.3816
C460       C    0.9724057372   -0.1294643590    0.5067814940         -0.3834
N461       N    0.9832255363   -0.2116059292    0.5050236231         -0.3826
H462       H    1.0366432717   -0.1840637884    0.4902333180          0.6046
H463       H    1.0452173279   -0.1318714645    0.4883950580          0.6017
C464       C    0.9454556451   -0.1083984211    0.5132775587         -0.3787
H465       H    0.9454949841   -0.1687000729    0.5139894481         -0.3765
N466       N    1.0020455246   -0.2316079356    0.4934382024          0.6086
C467       C    1.0034057718   -0.2646678596    0.5066871124           -0.38
C468       C    0.9823459669   -0.2910381893    0.4938847279          0.6106
C469       C    0.9986590234   -0.3215514553    0.5047878776           -0.38
N470       N    1.0307566506   -0.3130578236    0.4982024197          0.6144
N471       N    1.0338981315   -0.2795268355    0.5028903936         -0.3827
C472       C    0.9881306188   -0.3541547402    0.4926487055          0.6113
H473       H    1.0476720594   -0.2764696619    0.5214828213          -0.368
H474       H    1.0356484244   -0.3158616253    0.4755550105          0.5964
H475       H    0.9590834033   -0.2892218626    0.5028935248         -0.3822
H476       H    0.9963549353   -0.3221811051    0.5297166272           -0.36
H477       H    0.9814633577   -0.2900452706    0.4688848576          0.5906
H478       H    0.9993371348   -0.2629513304    0.5315034876         -0.3602
H479       H    0.9505286066   -0.0930826909    0.5324008032         -0.3638
H480       H    0.9403688385   -0.0943759226    0.4931638506          0.6049
H481       H    0.9247491182   -0.1212013369    0.5190365186         -0.3737
C482       C    1.0000000000   -0.3826517108    0.5000000000         -0.3822
H483       H    1.0200112794   -0.3837319753    0.5148617857         -0.3703
H484       H    0.9679235978   -0.3533361865    0.4781216782          0.5997
C425       C    1.0000000000    0.1173482892    0.5000000000          0.6108
C426       C    1.0066689539    0.1387317392    0.4782630266          0.6066
C427       C    1.0055920874    0.1692690546    0.4830221794          0.6081
C428       C    0.9973714241    0.1817736849    0.5099768736          0.6143
C429       C    0.9908922838    0.1603660265    0.5315075735         -0.3816
C430       C    0.9922368607    0.1294643590    0.5273343313         -0.3834
N431       N    0.9943802133    0.2116059292    0.5165842522         -0.3826
H432       H    1.0110697529    0.1840637884    0.4637291025          0.6046
H433       H    1.0132132002    0.1318714645    0.4552262046          0.6017
C434       C    0.9847819854    0.1083984211    0.5540351020         -0.3787
H435       H    0.9840719562    0.1687000729    0.5539703515         -0.3765
N436       N    1.0066306965    0.2316079356    0.4981902424          0.6086
C437       C    0.9934388500    0.2646678596    0.4963574645           -0.38
C438       C    1.0054805675    0.2910381893    0.5178612658          0.6106
C439       C    0.9951672651    0.3215514553    0.5011690437           -0.38
N440       N    1.0028954040    0.3130578236    0.4693272191          0.6144
N441       N    0.9983226725    0.2795268355    0.4660202374         -0.3827
C442       C    1.0069224931    0.3541547402    0.5121244724          0.6113
H443       H    0.9802342760    0.2764696619    0.4515907755          -0.368
H444       H    1.0257031403    0.3158616253    0.4652477878          0.5964
H445       H    0.9956463244    0.2892218626    0.5407870798         -0.3822
H446       H    0.9701721063    0.3221811051    0.5025809268           -0.36
H447       H    1.0304329372    0.2900452706    0.5196365864          0.5906
H448       H    0.9684929444    0.2629513304    0.4995367849         -0.3602
H449       H    0.9658522152    0.0930826909    0.5482820837         -0.3638
H450       H    1.0047010920    0.0943759226    0.5598373469          0.6049
H451       H    0.9782868342    0.1212013369    0.5745226320         -0.3737
C452       C    1.0000000000    0.3826517108    0.5000000000         -0.3822
H453       H    0.9858627312    0.3837319753    0.4794704699         -0.3703
H454       H    1.0207182233    0.3533361865    0.5328376578          0.5997
C395       C    0.8826517108   -0.0000000000    0.5000000000          0.6108
C396       C    0.8612682608   -0.0211495289    0.5083467590          0.6066
C397       C    0.8307309454   -0.0167580599    0.5062197477          0.6081
C398       C    0.8182263151    0.0094375527    0.4958310654          0.6143
C399       C    0.8396339735    0.0303074563    0.4874646189         -0.3816
C400       C    0.8705356410    0.0262069392    0.4890169067         -0.3834
N401       N    0.7883940708    0.0164677266    0.4940474038         -0.3826
H402       H    0.8159362116   -0.0352543410    0.5139731485          0.6046
H403       H    0.8681285355   -0.0432372240    0.5176018145          0.6017
C404       C    0.8916015789    0.0517263994    0.4781880807         -0.3787
H405       H    0.8312999271    0.0521186959    0.4787834273         -0.3765
N406       N    0.7683920644   -0.0055506261    0.4959463710          0.6086
C407       C    0.7353321404    0.0012457519    0.5074003281           -0.38
C408       C    0.7089618107    0.0105416060    0.4845748264          0.6106
C409       C    0.6784485447    0.0039283058    0.5030480163           -0.38
N410       N    0.6869421764   -0.0257798409    0.5168701706          0.6144
N411       N    0.7204731645   -0.0255121662    0.5225070449         -0.3827
C412       C    0.6458452598    0.0051582984    0.4870263460          0.6113
H413       H    0.7235303381   -0.0255069176    0.5456457448          -0.368
H414       H    0.6841383747   -0.0431954235    0.5015884144          0.5964
H415       H    0.7107781374    0.0345947869    0.4779604654         -0.3822
H416       H    0.6778188949    0.0206234230    0.5217034295           -0.36
H417       H    0.7099547294   -0.0036357134    0.4639647286          0.5906
H418       H    0.7370486696    0.0192915682    0.5249147449         -0.3602
H419       H    0.9069173091    0.0590379603    0.4965721634         -0.3638
H420       H    0.9056240774    0.0438361811    0.4590000295          0.6049
H421       H    0.8787986631    0.0717909525    0.4704848617         -0.3737
C422       C    0.6173482892   -0.0000000000    0.5000000000         -0.3822
H423       H    0.6162680247   -0.0072271949    0.5238556415         -0.3703
H424       H    0.6466638135    0.0127420841    0.4633230885          0.5997
C365       C    1.3826517108   -0.0000000000    0.5000000000          0.6108
C366       C    1.3612682608   -0.0226870624    0.5015060404          0.6066
C367       C    1.3307309454   -0.0178563281    0.5008181579          0.6081
C368       C    1.3182263151    0.0102590347    0.4989047262          0.6143
C369       C    1.3396339735    0.0326857651    0.4972947377         -0.3816
C370       C    1.3705356410    0.0283072567    0.4975238700         -0.3834
N371       N    1.2883940708    0.0174984028    0.4993478326         -0.3826
H372       H    1.3159362116   -0.0378355078    0.5025674467          0.6046
H373       H    1.3681285355   -0.0465444263    0.5035913500          0.6017
C374       C    1.3916015789    0.0559127187    0.4949852106         -0.3787
H375       H    1.3312999271    0.0561049722    0.4956717764         -0.3765
N376       N    1.2683920644   -0.0040516529    0.4944479313          0.6086
C377       C    1.2353321404   -0.0010682200    0.5074280320           -0.38
C378       C    1.2089618107    0.0147401608    0.4885200568          0.6106
C379       C    1.1784485447    0.0028128583    0.5040999778           -0.38
N380       N    1.1869421764   -0.0296941476    0.5082134313          0.6144
N381       N    1.2204731645   -0.0311566499    0.5136638522         -0.3827
C382       C    1.1458452598    0.0088658739    0.4892148240          0.6113
H383       H    1.2235303381   -0.0382015807    0.5357040067          -0.368
H384       H    1.1841383747   -0.0416256293    0.4883520533          0.5964
H385       H    1.2107781374    0.0396649900    0.4895487350         -0.3822
H386       H    1.1778188949    0.0130302393    0.5269550977           -0.36
H387       H    1.2099547294    0.0075164232    0.4645703150          0.5906
H388       H    1.2370486696    0.0107832806    0.5296079378         -0.3602
H389       H    1.4069173091    0.0572753599    0.5147229062         -0.3638
H390       H    1.4056240774    0.0542438868    0.4743054655          0.6049
H391       H    1.3787986631    0.0773703165    0.4937615408         -0.3737
C392       C    1.1173482892   -0.0000000000    0.5000000000         -0.3822
H393       H    1.1162680247   -0.0141519417    0.5205194182         -0.3703
H394       H    1.1466638135    0.0233110235    0.4689491912          0.5997
C335       C   -0.0000000000   -0.1173482892    0.0000000000          0.6108
C336       C   -0.0113459307   -0.1387317392    0.0197038275          0.6066
C337       C   -0.0086003972   -0.1692690546    0.0156700671          0.6081
C338       C    0.0055024907   -0.1817736849   -0.0087275434          0.6143
C339       C    0.0168270615   -0.1603660265   -0.0281518682         -0.3816
C340       C    0.0146925801   -0.1294643590   -0.0243220083         -0.3834
N341       N    0.0082937098   -0.2116059292   -0.0154218611         -0.3826
H342       H   -0.0189718530   -0.1840637884    0.0328357462          0.6046
H343       H   -0.0237274288   -0.1318714645    0.0402031161          0.6017
C344       C    0.0291321480   -0.1083984211   -0.0479864374         -0.3787
H345       H    0.0286004749   -0.1687000729   -0.0484614719         -0.3765
N346       N    0.0031995607   -0.2316079356    0.0060831053          0.6086
C347       C   -0.0071390593   -0.2646678596   -0.0023131334           -0.38
C348       C    0.0167992844   -0.2910381893   -0.0081759085          0.6106
C349       C   -0.0024416516   -0.3215514553   -0.0043313193           -0.38
N350       N   -0.0204541679   -0.3130578236    0.0230397454          0.6144
N351       N   -0.0259915173   -0.2795268355    0.0219517362         -0.3827
C352       C    0.0135878745   -0.3541547402   -0.0032083342          0.6113
H353       H   -0.0488813763   -0.2764696619    0.0185673884          -0.368
H354       H   -0.0078796068   -0.3158616253    0.0425003467          0.5964
H355       H    0.0268554373   -0.2892218626   -0.0310052553         -0.3822
H356       H   -0.0184589162   -0.3221811051   -0.0235718655           -0.36
H357       H    0.0351179741   -0.2900452706    0.0088592940          0.5906
H358       H   -0.0218303055   -0.2629513304   -0.0227232674         -0.3602
H359       H    0.0120129385   -0.0930826909   -0.0579044050         -0.3638
H360       H    0.0469622000   -0.0943759226   -0.0373786052          0.6049
H361       H    0.0396829893   -0.1212013369   -0.0667109032         -0.3737
C362       C    0.0000000000   -0.3826517108    0.0000000000         -0.3822
H363       H   -0.0246553340   -0.3837319753    0.0036658536         -0.3703
H364       H    0.0381445344   -0.3533361865   -0.0072492096          0.5997
C305       C    0.0000000000    0.3826517108    0.0000000000          0.6108
C306       C    0.0218489054    0.3612682608   -0.0062925584          0.6066
C307       C    0.0170718647    0.3307309454   -0.0052980439          0.6081
C308       C   -0.0100207815    0.3182263151    0.0024558818          0.6143
C309       C   -0.0316601661    0.3396339735    0.0085622172         -0.3816
C310       C   -0.0274643253    0.3705356410    0.0072899134         -0.3834
N311       N   -0.0166788334    0.2883940708    0.0053325359         -0.3826
H312       H    0.0364566644    0.3159362116   -0.0104416980          0.6046
H313       H    0.0449953119    0.3681285355   -0.0124379793          0.6017
C314       C   -0.0542898607    0.3916015789    0.0142825504         -0.3787
H315       H   -0.0542373821    0.3312999271    0.0149935920         -0.3765
N316       N    0.0019240009    0.2683920644   -0.0065984528          0.6086
C317       C    0.0035286802    0.2353321404    0.0066230786           -0.38
C318       C   -0.0177639517    0.2089618107   -0.0057882170          0.6106
C319       C   -0.0012523315    0.1784485447    0.0048118246           -0.38
N320       N    0.0307182104    0.1869421764   -0.0023652486          0.6144
N321       N    0.0339457271    0.2204731645    0.0022639131         -0.3827
C322       C   -0.0120031116    0.1458452598   -0.0071308522          0.6113
H323       H    0.0480606476    0.2235303381    0.0205988109          -0.368
H324       H    0.0351909265    0.1841383747   -0.0250991308          0.5964
H325       H   -0.0408561854    0.2107781374    0.0036486271         -0.3822
H326       H   -0.0030956742    0.1778188949    0.0297788722           -0.36
H327       H   -0.0191080762    0.2099547294   -0.0307675253          0.5906
H328       H   -0.0000809857    0.2370486696    0.0315103564         -0.3602
H329       H   -0.0488646204    0.4069173091    0.0333088529         -0.3638
H330       H   -0.0597472342    0.4056240774   -0.0057337911          0.6049
H331       H   -0.0748865074    0.3787986631    0.0204229102         -0.3737
C332       C    0.0000000000    0.1173482892    0.0000000000         -0.3822
H333       H    0.0202823156    0.1162680247    0.0144897085         -0.3703
H334       H   -0.0324749534    0.1466638135   -0.0212822447          0.5997
C275       C   -0.3826517108   -0.0000000000    0.0000000000          0.6108
C276       C   -0.3612682608    0.0144602931   -0.0175462498          0.6066
C277       C   -0.3307309454    0.0110830583   -0.0140243949          0.6081
C278       C   -0.3182263151   -0.0068753335    0.0076926722          0.6143
C279       C   -0.3396339735   -0.0212681511    0.0249668467         -0.3816
C280       C   -0.3705356410   -0.0185273433    0.0215445944         -0.3834
N281       N   -0.2883940708   -0.0107394134    0.0138305612         -0.3826
H282       H   -0.3159362116    0.0241609382   -0.0292295484          0.6046
H283       H   -0.3681285355    0.0300738655   -0.0357049581          0.6017
C284       C   -0.3916015789   -0.0366959940    0.0424827523         -0.3787
H285       H   -0.3312999271   -0.0362505831    0.0430394777         -0.3765
N286       N   -0.2683920644   -0.0021450227   -0.0065299492          0.6086
C287       C   -0.2353321404    0.0066558437    0.0034664821           -0.38
C288       C   -0.2089618107   -0.0179236913    0.0052728291          0.6106
C289       C   -0.1784485447    0.0016885251    0.0046766305           -0.38
N290       N   -0.1869421764    0.0239960184   -0.0193234043          0.6144
N291       N   -0.2204731645    0.0292758245   -0.0173310066         -0.3827
C292       C   -0.1458452598   -0.0139319852    0.0009074848          0.6113
H293       H   -0.2235303381    0.0512859186   -0.0101927141          -0.368
H294       H   -0.1841383747    0.0148275236   -0.0406018746          0.5964
H295       H   -0.2107781374   -0.0316311147    0.0261153777         -0.3822
H296       H   -0.1778188949    0.0142884685    0.0263097719           -0.36
H297       H   -0.2099547294   -0.0331593127   -0.0145677444          0.5906
H298       H   -0.2370486696    0.0177539645    0.0260327844         -0.3602
H299       H   -0.4069173091   -0.0214613619    0.0551057235         -0.3638
H300       H   -0.4056240774   -0.0525170457    0.0290614566          0.6049
H301       H   -0.3787986631   -0.0502096101    0.0591952642         -0.3737
C302       C   -0.1173482892   -0.0000000000    0.0000000000         -0.3822
H303       H   -0.1162680247    0.0249217657    0.0004791326         -0.3703
H304       H   -0.1466638135   -0.0388187203    0.0008145526          0.5997
C245       C    0.1173482892   -0.0000000000    0.0000000000          0.6108
C246       C    0.1387317392    0.0217881655    0.0064997543          0.6066
C247       C    0.1692690546    0.0172302654    0.0047577084          0.6081
C248       C    0.1817736849   -0.0097606901   -0.0033431044          0.6143
C249       C    0.1603660265   -0.0312719537   -0.0098864857         -0.3816
C250       C    0.1294643590   -0.0270532840   -0.0086920554         -0.3834
N251       N    0.2116059292   -0.0169180635   -0.0045164755         -0.3826
H252       H    0.1840637884    0.0363240304    0.0108941384          0.6046
H253       H    0.1318714645    0.0445890297    0.0138238868          0.6017
C254       C    0.1083984211   -0.0534083811   -0.0172894492         -0.3787
H255       H    0.1687000729   -0.0537481043   -0.0166626141         -0.3765
N256       N    0.2316079356    0.0051820255   -0.0045153040          0.6086
C257       C    0.2646678596   -0.0006056621    0.0074799684           -0.38
C258       C    0.2910381893   -0.0118272716   -0.0144629555          0.6106
C259       C    0.3215514553   -0.0036520528    0.0033740925           -0.38
N260       N    0.3130578236    0.0271333041    0.0145940626          0.6144
N261       N    0.2795268355    0.0273506732    0.0202331009         -0.3827
C262       C    0.3541547402   -0.0062533302   -0.0124827722          0.6113
H263       H    0.2764696619    0.0293324326    0.0432867793          -0.368
H264       H    0.3158616253    0.0431722656   -0.0021267719          0.5964
H265       H    0.2892218626   -0.0363595971   -0.0189873660         -0.3822
H266       H    0.3221811051   -0.0186835044    0.0233942534           -0.36
H267       H    0.2900452706    0.0005278281   -0.0362143700          0.5906
H268       H    0.2629513304   -0.0170808042    0.0264793363         -0.3602
H269       H    0.0930826909   -0.0591142381    0.0016545898         -0.3638
H270       H    0.0943759226   -0.0471950432   -0.0370841779          0.6049
H271       H    0.1212013369   -0.0740603158   -0.0232412107         -0.3737
C272       C    0.3826517108   -0.0000000000    0.0000000000         -0.3822
H273       H    0.3837319753    0.0092490528    0.0231469004         -0.3703
H274       H    0.3533361865   -0.0158445709   -0.0354472300          0.5997
C215       C    0.0000000000    0.0000000000   -0.1173482892          0.6108
C216       C    0.0058244657   -0.0219783202   -0.1387317392          0.6066
C217       C    0.0049322079   -0.0171811280   -0.1692690546          0.6081
C218       C   -0.0022412939    0.0100709493   -0.1817736849          0.6143
C219       C   -0.0078840541    0.0318358191   -0.1603660265         -0.3816
C220       C   -0.0067016569    0.0276137610   -0.1294643590         -0.3834
N221       N   -0.0049750866    0.0167889230   -0.2116059292         -0.3826
H222       H    0.0096606607   -0.0366713658   -0.1840637884          0.6046
H223       H    0.0114741149   -0.0452507028   -0.1318714645          0.6017
C224       C   -0.0131197488    0.0545825285   -0.1083984211         -0.3787
H225       H   -0.0138317490    0.0545452486   -0.1687000729         -0.3765
N226       N    0.0065558540   -0.0020644942   -0.2316079356          0.6086
C227       C   -0.0066969347   -0.0033864170   -0.2646678596           -0.38
C228       C    0.0061663059    0.0176362725   -0.2910381893          0.6106
C229       C   -0.0047839791    0.0013548186   -0.3215514553           -0.38
N230       N    0.0017086177   -0.0307617210   -0.3130578236          0.6144
N231       N   -0.0029884225   -0.0338896300   -0.2795268355         -0.3827
C232       C    0.0073855926    0.0118480700   -0.3541547402          0.6113
H233       H   -0.0216206096   -0.0476097270   -0.2764696619          -0.368
H234       H    0.0243417841   -0.0357189757   -0.3158616253          0.5964
H235       H   -0.0027751728    0.0409247943   -0.2892218626         -0.3822
H236       H   -0.0297059606    0.0037309966   -0.3221811051           -0.36
H237       H    0.0311686244    0.0184465728   -0.2900452706          0.5906
H238       H   -0.0315014387    0.0007539775   -0.2629513304         -0.3602
H239       H   -0.0322575854    0.0495648968   -0.0930826909         -0.3638
H240       H    0.0070085874    0.0596111404   -0.0943759226          0.6049
H241       H   -0.0188187967    0.0753056249   -0.1212013369         -0.3737
C242       C    0.0000000000    0.0000000000   -0.3826517108         -0.3822
H243       H   -0.0149196006   -0.0199682121   -0.3837319753         -0.3703
H244       H    0.0219710024    0.0320129911   -0.3533361865          0.5997
C185       C    0.0000000000    0.0000000000    0.1173482892          0.6108
C186       C   -0.0113338733   -0.0197107655    0.1387317392          0.6066
C187       C   -0.0092260684   -0.0153100456    0.1692690546          0.6081
C188       C    0.0047805052    0.0091429857    0.1817736849          0.6143
C189       C    0.0158834625    0.0286948306    0.1603660265         -0.3816
C190       C    0.0136448827    0.0249248706    0.1294643590         -0.3834
N191       N    0.0091655910    0.0149201664    0.2116059292         -0.3826
H192       H   -0.0188552198   -0.0329028589    0.1840637884          0.6046
H193       H   -0.0228350933   -0.0407165805    0.1318714645          0.6017
C194       C    0.0268483837    0.0493005529    0.1083984211         -0.3787
H195       H    0.0275262565    0.0490795948    0.1687000729         -0.3765
N196       N   -0.0068670894   -0.0002905895    0.2316079356          0.6086
C197       C    0.0055873300   -0.0050098400    0.2646678596           -0.38
C198       C   -0.0013731978    0.0186326532    0.2910381893          0.6106
C199       C    0.0049716890    0.0000655614    0.3215514553           -0.38
N200       N   -0.0096410086   -0.0292618148    0.3130578236          0.6144
N201       N   -0.0059177631   -0.0335025040    0.2795268355         -0.3827
C202       C   -0.0040542418    0.0133598976    0.3541547402          0.6113
H203       H    0.0085106750   -0.0515917171    0.2764696619          -0.368
H204       H   -0.0327849333   -0.0281694129    0.3158616253          0.5964
H205       H    0.0133110353    0.0387989266    0.2892218626         -0.3822
H206       H    0.0296553608   -0.0041138796    0.3221811051           -0.36
H207       H   -0.0253066893    0.0259100496    0.2900452706          0.5906
H208       H    0.0306158523   -0.0074551129    0.2629513304         -0.3602
H209       H    0.0440257731    0.0394836943    0.0930826909         -0.3638
H210       H    0.0087173511    0.0593853193    0.0943759226          0.6049
H211       H    0.0377350723    0.0678317667    0.1212013369         -0.3737
C212       C   -0.0000000000    0.0000000000    0.3826517108         -0.3822
H213       H    0.0092202169   -0.0231584019    0.3837319753         -0.3703
H214       H   -0.0129006412    0.0366214418    0.3533361865          0.5997
loop_
_geom_bond_atom_site_label_1
_geom_bond_atom_site_label_2
_geom_bond_distance
_geom_bond_site_symmetry_2
_ccdc_geom_bond_type
Zn1          O5 1.942       .   S
Zn1          O6 1.922       .   S
Zn1         O10 1.922       .   S
Zn1         O17 1.922       .   S
Zn2          O5 1.942       .   S
Zn2          O7 1.922       .   S
Zn2          O9 1.922       .   S
Zn2         O13 1.922       .   S
Zn3          O5 1.942       .   S
Zn3          O8 1.922       .   S
Zn3         O11 1.922       .   S
Zn3         O14 1.922       .   S
Zn4          O5 1.942       .   S
Zn4         O12 1.922       .   S
Zn4         O15 1.922       .   S
Zn4         O16 1.922       .   S
O6          C18 1.304       .   A
O7          C19 1.304       .   A
O8          C20 1.304       .   A
O9          C18 1.304       .   A
O10         C20 1.304       .   A
O11         C19 1.304       .   A
O12         C21 1.304       .   A
O13         C22 1.304       .   A
O14         C21 1.304       .   A
O15         C22 1.304       .   A
O16         C23 1.304       .   A
O17         C23 1.304       .   A
C18        C185 1.540       .   S
C19        C245 1.540       .   S
C20        C335 1.540       .   S
C21        C215 1.540       .   S
C22        C332 1.540       .   S
C23        C302 1.540       .   S
Zn24        O28 1.942       .   S
Zn24        O29 1.922       .   S
Zn24        O33 1.922       .   S
Zn24        O40 1.922       .   S
Zn25        O28 1.942       .   S
Zn25        O30 1.922       .   S
Zn25        O32 1.922       .   S
Zn25        O36 1.922       .   S
Zn26        O28 1.942       .   S
Zn26        O31 1.922       .   S
Zn26        O34 1.922       .   S
Zn26        O37 1.922       .   S
Zn27        O28 1.942       .   S
Zn27        O35 1.922       .   S
Zn27        O38 1.922       .   S
Zn27        O39 1.922       .   S
O29         C41 1.304       .   A
O30         C42 1.304       .   A
O31         C43 1.304       .   A
O32         C41 1.304       .   A
O33         C43 1.304       .   A
O34         C42 1.304       .   A
O35         C44 1.304       .   A
O36         C45 1.304       .   A
O37         C44 1.304       .   A
O38         C45 1.304       .   A
O39         C46 1.304       .   A
O40         C46 1.304       .   A
C41        C212 1.540   1_655   S
C42        C392 1.540       .   S
C43        C425 1.540       .   S
C44        C242 1.540   1_656   S
C45        C455 1.540       .   S
C46        C395 1.540       .   S
Zn47        O51 1.942       .   S
Zn47        O52 1.922       .   S
Zn47        O56 1.922       .   S
Zn47        O63 1.922       .   S
Zn48        O51 1.942       .   S
Zn48        O53 1.922       .   S
Zn48        O55 1.922       .   S
Zn48        O59 1.922       .   S
Zn49        O51 1.942       .   S
Zn49        O54 1.922       .   S
Zn49        O57 1.922       .   S
Zn49        O60 1.922       .   S
Zn50        O51 1.942       .   S
Zn50        O58 1.922       .   S
Zn50        O61 1.922       .   S
Zn50        O62 1.922       .   S
O52         C64 1.304       .   A
O53         C65 1.304       .   A
O54         C66 1.304       .   A
O55         C64 1.304       .   A
O56         C66 1.304       .   A
O57         C65 1.304       .   A
O58         C67 1.304       .   A
O59         C68 1.304       .   A
O60         C67 1.304       .   A
O61         C68 1.304       .   A
O62         C69 1.304       .   A
O63         C69 1.304       .   A
C64        C485 1.540       .   S
C65        C545 1.540       .   S
C66        C305 1.540   1_655   S
C67        C515 1.540       .   S
C68        C362 1.540   1_665   S
C69        C575 1.540       .   S
Zn70        O74 1.942       .   S
Zn70        O75 1.922       .   S
Zn70        O79 1.922       .   S
Zn70        O86 1.922       .   S
Zn71        O74 1.942       .   S
Zn71        O76 1.922       .   S
Zn71        O78 1.922       .   S
Zn71        O82 1.922       .   S
Zn72        O74 1.942       .   S
Zn72        O77 1.922       .   S
Zn72        O80 1.922       .   S
Zn72        O83 1.922       .   S
Zn73        O74 1.942       .   S
Zn73        O81 1.922       .   S
Zn73        O84 1.922       .   S
Zn73        O85 1.922       .   S
O75         C87 1.304       .   A
O76         C88 1.304       .   A
O77         C89 1.304       .   A
O78         C87 1.304       .   A
O79         C89 1.304       .   A
O80         C88 1.304       .   A
O81         C90 1.304       .   A
O82         C91 1.304       .   A
O83         C90 1.304       .   A
O84         C91 1.304       .   A
O85         C92 1.304       .   A
O86         C92 1.304       .   A
C87        C482 1.540   1_565   S
C88        C635 1.540       .   S
C89        C512 1.540       .   S
C90        C452 1.540       .   S
C91        C542 1.540   1_556   S
C92        C605 1.540       .   S
Zn93        O97 1.942       .   S
Zn93        O98 1.922       .   S
Zn93       O102 1.922       .   S
Zn93       O109 1.922       .   S
Zn94        O97 1.942       .   S
Zn94        O99 1.922       .   S
Zn94       O101 1.922       .   S
Zn94       O105 1.922       .   S
Zn95        O97 1.942       .   S
Zn95       O100 1.922       .   S
Zn95       O103 1.922       .   S
Zn95       O106 1.922       .   S
Zn96        O97 1.942       .   S
Zn96       O104 1.922       .   S
Zn96       O107 1.922       .   S
Zn96       O108 1.922       .   S
O98        C110 1.304       .   A
O99        C111 1.304       .   A
O100       C112 1.304       .   A
O101       C110 1.304       .   A
O102       C112 1.304       .   A
O103       C111 1.304       .   A
O104       C113 1.304       .   A
O105       C114 1.304       .   A
O106       C113 1.304       .   A
O107       C114 1.304       .   A
O108       C115 1.304       .   A
O109       C115 1.304       .   A
C110       C272 1.540   1_565   S
C111       C692 1.540       .   S
C112       C782 1.540       .   S
C113       C275 1.540   1_665   S
C114       C725 1.540       .   S
C115       C722 1.540       .   S
Zn116      O120 1.942       .   S
Zn116      O121 1.922       .   S
Zn116      O125 1.922       .   S
Zn116      O132 1.922       .   S
Zn117      O120 1.942       .   S
Zn117      O122 1.922       .   S
Zn117      O124 1.922       .   S
Zn117      O128 1.922       .   S
Zn118      O120 1.942       .   S
Zn118      O123 1.922       .   S
Zn118      O126 1.922       .   S
Zn118      O129 1.922       .   S
Zn119      O120 1.942       .   S
Zn119      O127 1.922       .   S
Zn119      O130 1.922       .   S
Zn119      O131 1.922       .   S
O121       C133 1.304       .   A
O122       C134 1.304       .   A
O123       C135 1.304       .   A
O124       C133 1.304       .   A
O125       C135 1.304       .   A
O126       C134 1.304       .   A
O127       C136 1.304       .   A
O128       C137 1.304       .   A
O129       C136 1.304       .   A
O130       C137 1.304       .   A
O131       C138 1.304       .   A
O132       C138 1.304       .   A
C133       C365 1.540   1_465   S
C134       C665 1.540       .   S
C135       C785 1.540       .   S
C136       C422 1.540   1_565   S
C137       C815 1.540       .   S
C138       C695 1.540   1_556   S
Zn139      O143 1.942       .   S
Zn139      O144 1.922       .   S
Zn139      O148 1.922       .   S
Zn139      O155 1.922       .   S
Zn140      O143 1.942       .   S
Zn140      O145 1.922       .   S
Zn140      O147 1.922       .   S
Zn140      O151 1.922       .   S
Zn141      O143 1.942       .   S
Zn141      O146 1.922       .   S
Zn141      O149 1.922       .   S
Zn141      O152 1.922       .   S
Zn142      O143 1.942       .   S
Zn142      O150 1.922       .   S
Zn142      O153 1.922       .   S
Zn142      O154 1.922       .   S
O144       C156 1.304       .   A
O145       C157 1.304       .   A
O146       C158 1.304       .   A
O147       C156 1.304       .   A
O148       C158 1.304       .   A
O149       C157 1.304       .   A
O150       C159 1.304       .   A
O151       C160 1.304       .   A
O152       C159 1.304       .   A
O153       C160 1.304       .   A
O154       C161 1.304       .   A
O155       C161 1.304       .   A
C156       C572 1.540   1_455   S
C157       C752 1.540   1_545   S
C158       C902 1.540       .   S
C159       C602 1.540       .   S
C160       C872 1.540       .   S
C161       C755 1.540       .   S
Zn162      O166 1.942       .   S
Zn162      O167 1.922       .   S
Zn162      O171 1.922       .   S
Zn162      O178 1.922       .   S
Zn163      O166 1.942       .   S
Zn163      O168 1.922       .   S
Zn163      O170 1.922       .   S
Zn163      O174 1.922       .   S
Zn164      O166 1.942       .   S
Zn164      O169 1.922       .   S
Zn164      O172 1.922       .   S
Zn164      O175 1.922       .   S
Zn165      O166 1.942       .   S
Zn165      O173 1.922       .   S
Zn165      O176 1.922       .   S
Zn165      O177 1.922       .   S
O167       C179 1.304       .   A
O168       C180 1.304       .   A
O169       C181 1.304       .   A
O170       C179 1.304       .   A
O171       C181 1.304       .   A
O172       C180 1.304       .   A
O173       C182 1.304       .   A
O174       C183 1.304       .   A
O175       C182 1.304       .   A
O176       C183 1.304       .   A
O177       C184 1.304       .   A
O178       C184 1.304       .   A
C179       C632 1.540   1_455   S
C180       C812 1.540   1_545   S
C181       C845 1.540       .   S
C182       C662 1.540       .   S
C183       C875 1.540   1_556   S
C184       C842 1.540       .   S
C875       C876 0.025       .   A
C875       C880 0.025       .   A
C876       C877 0.025       .   A
C876       H883 0.020       .   A
C877       C878 0.025       .   A
C877       H882 0.020       .   A
C878       C879 0.025       .   A
C878       N881 0.025       .   A
C879       C880 0.025       .   A
C879       H885 0.020       .   A
C880       C884 0.028       .   A
N881       N886 0.024       .   A
C884       H899 0.020       .   A
C884       H900 0.020       .   A
C884       H901 0.020       .   A
N886       C887 0.028       .   A
C887       C888 0.029       .   A
C887       N891 0.027       .   A
C887       H898 0.020       .   A
C888       C889 0.029       .   A
C888       H895 0.020       .   A
C888       H897 0.020       .   A
C889       N890 0.027       .   A
C889       C892 0.029       .   A
C889       H896 0.020       .   A
N890       N891 0.027       .   A
N890       H894 0.019       .   A
N891       H893 0.019       .   A
C892       C902 0.025       .   A
C892       H904 0.020       .   A
C902       H903 0.020       .   A
C845       C846 0.025       .   A
C845       C850 0.025       .   A
C846       C847 0.025       .   A
C846       H853 0.020       .   A
C847       C848 0.025       .   A
C847       H852 0.020       .   A
C848       C849 0.025       .   A
C848       N851 0.025       .   A
C849       C850 0.025       .   A
C849       H855 0.020       .   A
C850       C854 0.028       .   A
N851       N856 0.024       .   A
C854       H869 0.020       .   A
C854       H870 0.020       .   A
C854       H871 0.020       .   A
N856       C857 0.028       .   A
C857       C858 0.029       .   A
C857       N861 0.027       .   A
C857       H868 0.020       .   A
C858       C859 0.029       .   A
C858       H865 0.020       .   A
C858       H867 0.020       .   A
C859       N860 0.027       .   A
C859       C862 0.029       .   A
C859       H866 0.020       .   A
N860       N861 0.027       .   A
N860       H864 0.019       .   A
N861       H863 0.019       .   A
C862       C872 0.025       .   A
C862       H874 0.020       .   A
C872       H873 0.020       .   A
C815       C816 0.025       .   A
C815       C820 0.025       .   A
C816       C817 0.025       .   A
C816       H823 0.020       .   A
C817       C818 0.025       .   A
C817       H822 0.020       .   A
C818       C819 0.025       .   A
C818       N821 0.025       .   A
C819       C820 0.025       .   A
C819       H825 0.020       .   A
C820       C824 0.028       .   A
N821       N826 0.024       .   A
C824       H839 0.020       .   A
C824       H840 0.020       .   A
C824       H841 0.020       .   A
N826       C827 0.028       .   A
C827       C828 0.029       .   A
C827       N831 0.027       .   A
C827       H838 0.020       .   A
C828       C829 0.029       .   A
C828       H835 0.020       .   A
C828       H837 0.020       .   A
C829       N830 0.027       .   A
C829       C832 0.029       .   A
C829       H836 0.020       .   A
N830       N831 0.027       .   A
N830       H834 0.019       .   A
N831       H833 0.019       .   A
C832       C842 0.025       .   A
C832       H844 0.020       .   A
C842       H843 0.020       .   A
C785       C786 0.025       .   A
C785       C790 0.025       .   A
C786       C787 0.025       .   A
C786       H793 0.020       .   A
C787       C788 0.025       .   A
C787       H792 0.020       .   A
C788       C789 0.025       .   A
C788       N791 0.025       .   A
C789       C790 0.025       .   A
C789       H795 0.020       .   A
C790       C794 0.028       .   A
N791       N796 0.024       .   A
C794       H809 0.020       .   A
C794       H810 0.020       .   A
C794       H811 0.020       .   A
N796       C797 0.028       .   A
C797       C798 0.029       .   A
C797       N801 0.027       .   A
C797       H808 0.020       .   A
C798       C799 0.029       .   A
C798       H805 0.020       .   A
C798       H807 0.020       .   A
C799       N800 0.027       .   A
C799       C802 0.029       .   A
C799       H806 0.020       .   A
N800       N801 0.027       .   A
N800       H804 0.019       .   A
N801       H803 0.019       .   A
C802       C812 0.025       .   A
C802       H814 0.020       .   A
C812       H813 0.020       .   A
C755       C756 0.025       .   A
C755       C760 0.025       .   A
C756       C757 0.025       .   A
C756       H763 0.020       .   A
C757       C758 0.025       .   A
C757       H762 0.020       .   A
C758       C759 0.025       .   A
C758       N761 0.025       .   A
C759       C760 0.025       .   A
C759       H765 0.020       .   A
C760       C764 0.028       .   A
N761       N766 0.024       .   A
C764       H779 0.020       .   A
C764       H780 0.020       .   A
C764       H781 0.020       .   A
N766       C767 0.028       .   A
C767       C768 0.029       .   A
C767       N771 0.027       .   A
C767       H778 0.020       .   A
C768       C769 0.029       .   A
C768       H775 0.020       .   A
C768       H777 0.020       .   A
C769       N770 0.027       .   A
C769       C772 0.029       .   A
C769       H776 0.020       .   A
N770       N771 0.027       .   A
N770       H774 0.019       .   A
N771       H773 0.019       .   A
C772       C782 0.025       .   A
C772       H784 0.020       .   A
C782       H783 0.020       .   A
C725       C726 0.025       .   A
C725       C730 0.025       .   A
C726       C727 0.025       .   A
C726       H733 0.020       .   A
C727       C728 0.025       .   A
C727       H732 0.020       .   A
C728       C729 0.025       .   A
C728       N731 0.025       .   A
C729       C730 0.025       .   A
C729       H735 0.020       .   A
C730       C734 0.028       .   A
N731       N736 0.024       .   A
C734       H749 0.020       .   A
C734       H750 0.020       .   A
C734       H751 0.020       .   A
N736       C737 0.028       .   A
C737       C738 0.029       .   A
C737       N741 0.027       .   A
C737       H748 0.020       .   A
C738       C739 0.029       .   A
C738       H745 0.020       .   A
C738       H747 0.020       .   A
C739       N740 0.027       .   A
C739       C742 0.029       .   A
C739       H746 0.020       .   A
N740       N741 0.027       .   A
N740       H744 0.019       .   A
N741       H743 0.019       .   A
C742       C752 0.025       .   A
C742       H754 0.020       .   A
C752       H753 0.020       .   A
C695       C696 0.025       .   A
C695       C700 0.025       .   A
C696       C697 0.025       .   A
C696       H703 0.020       .   A
C697       C698 0.025       .   A
C697       H702 0.020       .   A
C698       C699 0.025       .   A
C698       N701 0.025       .   A
C699       C700 0.025       .   A
C699       H705 0.020       .   A
C700       C704 0.028       .   A
N701       N706 0.024       .   A
C704       H719 0.020       .   A
C704       H720 0.020       .   A
C704       H721 0.020       .   A
N706       C707 0.028       .   A
C707       C708 0.029       .   A
C707       N711 0.027       .   A
C707       H718 0.020       .   A
C708       C709 0.029       .   A
C708       H715 0.020       .   A
C708       H717 0.020       .   A
C709       N710 0.027       .   A
C709       C712 0.029       .   A
C709       H716 0.020       .   A
N710       N711 0.027       .   A
N710       H714 0.019       .   A
N711       H713 0.019       .   A
C712       C722 0.025       .   A
C712       H724 0.020       .   A
C722       H723 0.020       .   A
C665       C666 0.025       .   A
C665       C670 0.025       .   A
C666       C667 0.025       .   A
C666       H673 0.020       .   A
C667       C668 0.025       .   A
C667       H672 0.020       .   A
C668       C669 0.025       .   A
C668       N671 0.025       .   A
C669       C670 0.025       .   A
C669       H675 0.020       .   A
C670       C674 0.028       .   A
N671       N676 0.024       .   A
C674       H689 0.020       .   A
C674       H690 0.020       .   A
C674       H691 0.020       .   A
N676       C677 0.028       .   A
C677       C678 0.029       .   A
C677       N681 0.027       .   A
C677       H688 0.020       .   A
C678       C679 0.029       .   A
C678       H685 0.020       .   A
C678       H687 0.020       .   A
C679       N680 0.027       .   A
C679       C682 0.029       .   A
C679       H686 0.020       .   A
N680       N681 0.027       .   A
N680       H684 0.019       .   A
N681       H683 0.019       .   A
C682       C692 0.025       .   A
C682       H694 0.020       .   A
C692       H693 0.020       .   A
C635       C636 0.025       .   A
C635       C640 0.025       .   A
C636       C637 0.025       .   A
C636       H643 0.020       .   A
C637       C638 0.025       .   A
C637       H642 0.020       .   A
C638       C639 0.025       .   A
C638       N641 0.025       .   A
C639       C640 0.025       .   A
C639       H645 0.020       .   A
C640       C644 0.028       .   A
N641       N646 0.024       .   A
C644       H659 0.020       .   A
C644       H660 0.020       .   A
C644       H661 0.020       .   A
N646       C647 0.028       .   A
C647       C648 0.029       .   A
C647       N651 0.027       .   A
C647       H658 0.020       .   A
C648       C649 0.029       .   A
C648       H655 0.020       .   A
C648       H657 0.020       .   A
C649       N650 0.027       .   A
C649       C652 0.029       .   A
C649       H656 0.020       .   A
N650       N651 0.027       .   A
N650       H654 0.019       .   A
N651       H653 0.019       .   A
C652       C662 0.025       .   A
C652       H664 0.020       .   A
C662       H663 0.020       .   A
C605       C606 0.025       .   A
C605       C610 0.025       .   A
C606       C607 0.025       .   A
C606       H613 0.020       .   A
C607       C608 0.025       .   A
C607       H612 0.020       .   A
C608       C609 0.025       .   A
C608       N611 0.025       .   A
C609       C610 0.025       .   A
C609       H615 0.020       .   A
C610       C614 0.028       .   A
N611       N616 0.024       .   A
C614       H629 0.020       .   A
C614       H630 0.020       .   A
C614       H631 0.020       .   A
N616       C617 0.028       .   A
C617       C618 0.029       .   A
C617       N621 0.027       .   A
C617       H628 0.020       .   A
C618       C619 0.029       .   A
C618       H625 0.020       .   A
C618       H627 0.020       .   A
C619       N620 0.027       .   A
C619       C622 0.029       .   A
C619       H626 0.020       .   A
N620       N621 0.027       .   A
N620       H624 0.019       .   A
N621       H623 0.019       .   A
C622       C632 0.025       .   A
C622       H634 0.020       .   A
C632       H633 0.020       .   A
C575       C576 0.025       .   A
C575       C580 0.025       .   A
C576       C577 0.025       .   A
C576       H583 0.020       .   A
C577       C578 0.025       .   A
C577       H582 0.020       .   A
C578       C579 0.025       .   A
C578       N581 0.025       .   A
C579       C580 0.025       .   A
C579       H585 0.020       .   A
C580       C584 0.028       .   A
N581       N586 0.024       .   A
C584       H599 0.020       .   A
C584       H600 0.020       .   A
C584       H601 0.020       .   A
N586       C587 0.028       .   A
C587       C588 0.029       .   A
C587       N591 0.027       .   A
C587       H598 0.020       .   A
C588       C589 0.029       .   A
C588       H595 0.020       .   A
C588       H597 0.020       .   A
C589       N590 0.027       .   A
C589       C592 0.029       .   A
C589       H596 0.020       .   A
N590       N591 0.027       .   A
N590       H594 0.019       .   A
N591       H593 0.019       .   A
C592       C602 0.025       .   A
C592       H604 0.020       .   A
C602       H603 0.020       .   A
C545       C546 0.025       .   A
C545       C550 0.025       .   A
C546       C547 0.025       .   A
C546       H553 0.020       .   A
C547       C548 0.025       .   A
C547       H552 0.020       .   A
C548       C549 0.025       .   A
C548       N551 0.025       .   A
C549       C550 0.025       .   A
C549       H555 0.020       .   A
C550       C554 0.028       .   A
N551       N556 0.024       .   A
C554       H569 0.020       .   A
C554       H570 0.020       .   A
C554       H571 0.020       .   A
N556       C557 0.028       .   A
C557       C558 0.029       .   A
C557       N561 0.027       .   A
C557       H568 0.020       .   A
C558       C559 0.029       .   A
C558       H565 0.020       .   A
C558       H567 0.020       .   A
C559       N560 0.027       .   A
C559       C562 0.029       .   A
C559       H566 0.020       .   A
N560       N561 0.027       .   A
N560       H564 0.019       .   A
N561       H563 0.019       .   A
C562       C572 0.025       .   A
C562       H574 0.020       .   A
C572       H573 0.020       .   A
C515       C516 0.025       .   A
C515       C520 0.025       .   A
C516       C517 0.025       .   A
C516       H523 0.020       .   A
C517       C518 0.025       .   A
C517       H522 0.020       .   A
C518       C519 0.025       .   A
C518       N521 0.025       .   A
C519       C520 0.025       .   A
C519       H525 0.020       .   A
C520       C524 0.028       .   A
N521       N526 0.024       .   A
C524       H539 0.020       .   A
C524       H540 0.020       .   A
C524       H541 0.020       .   A
N526       C527 0.028       .   A
C527       C528 0.029       .   A
C527       N531 0.027       .   A
C527       H538 0.020       .   A
C528       C529 0.029       .   A
C528       H535 0.020       .   A
C528       H537 0.020       .   A
C529       N530 0.027       .   A
C529       C532 0.029       .   A
C529       H536 0.020       .   A
N530       N531 0.027       .   A
N530       H534 0.019       .   A
N531       H533 0.019       .   A
C532       C542 0.025       .   A
C532       H544 0.020       .   A
C542       H543 0.020       .   A
C485       C486 0.025       .   A
C485       C490 0.025       .   A
C486       C487 0.025       .   A
C486       H493 0.020       .   A
C487       C488 0.025       .   A
C487       H492 0.020       .   A
C488       C489 0.025       .   A
C488       N491 0.025       .   A
C489       C490 0.025       .   A
C489       H495 0.020       .   A
C490       C494 0.028       .   A
N491       N496 0.024       .   A
C494       H509 0.020       .   A
C494       H510 0.020       .   A
C494       H511 0.020       .   A
N496       C497 0.028       .   A
C497       C498 0.029       .   A
C497       N501 0.027       .   A
C497       H508 0.020       .   A
C498       C499 0.029       .   A
C498       H505 0.020       .   A
C498       H507 0.020       .   A
C499       N500 0.027       .   A
C499       C502 0.029       .   A
C499       H506 0.020       .   A
N500       N501 0.027       .   A
N500       H504 0.019       .   A
N501       H503 0.019       .   A
C502       C512 0.025       .   A
C502       H514 0.020       .   A
C512       H513 0.020       .   A
C455       C456 0.025       .   A
C455       C460 0.025       .   A
C456       C457 0.025       .   A
C456       H463 0.020       .   A
C457       C458 0.025       .   A
C457       H462 0.020       .   A
C458       C459 0.025       .   A
C458       N461 0.025       .   A
C459       C460 0.025       .   A
C459       H465 0.020       .   A
C460       C464 0.028       .   A
N461       N466 0.024       .   A
C464       H479 0.020       .   A
C464       H480 0.020       .   A
C464       H481 0.020       .   A
N466       C467 0.028       .   A
C467       C468 0.029       .   A
C467       N471 0.027       .   A
C467       H478 0.020       .   A
C468       C469 0.029       .   A
C468       H475 0.020       .   A
C468       H477 0.020       .   A
C469       N470 0.027       .   A
C469       C472 0.029       .   A
C469       H476 0.020       .   A
N470       N471 0.027       .   A
N470       H474 0.019       .   A
N471       H473 0.019       .   A
C472       C482 0.025       .   A
C472       H484 0.020       .   A
C482       H483 0.020       .   A
C425       C426 0.025       .   A
C425       C430 0.025       .   A
C426       C427 0.025       .   A
C426       H433 0.020       .   A
C427       C428 0.025       .   A
C427       H432 0.020       .   A
C428       C429 0.025       .   A
C428       N431 0.025       .   A
C429       C430 0.025       .   A
C429       H435 0.020       .   A
C430       C434 0.028       .   A
N431       N436 0.024       .   A
C434       H449 0.020       .   A
C434       H450 0.020       .   A
C434       H451 0.020       .   A
N436       C437 0.028       .   A
C437       C438 0.029       .   A
C437       N441 0.027       .   A
C437       H448 0.020       .   A
C438       C439 0.029       .   A
C438       H445 0.020       .   A
C438       H447 0.020       .   A
C439       N440 0.027       .   A
C439       C442 0.029       .   A
C439       H446 0.020       .   A
N440       N441 0.027       .   A
N440       H444 0.019       .   A
N441       H443 0.019       .   A
C442       C452 0.025       .   A
C442       H454 0.020       .   A
C452       H453 0.020       .   A
C395       C396 0.025       .   A
C395       C400 0.025       .   A
C396       C397 0.025       .   A
C396       H403 0.020       .   A
C397       C398 0.025       .   A
C397       H402 0.020       .   A
C398       C399 0.025       .   A
C398       N401 0.025       .   A
C399       C400 0.025       .   A
C399       H405 0.020       .   A
C400       C404 0.028       .   A
N401       N406 0.024       .   A
C404       H419 0.020       .   A
C404       H420 0.020       .   A
C404       H421 0.020       .   A
N406       C407 0.028       .   A
C407       C408 0.029       .   A
C407       N411 0.027       .   A
C407       H418 0.020       .   A
C408       C409 0.029       .   A
C408       H415 0.020       .   A
C408       H417 0.020       .   A
C409       N410 0.027       .   A
C409       C412 0.029       .   A
C409       H416 0.020       .   A
N410       N411 0.027       .   A
N410       H414 0.019       .   A
N411       H413 0.019       .   A
C412       C422 0.025       .   A
C412       H424 0.020       .   A
C422       H423 0.020       .   A
C365       C366 0.025       .   A
C365       C370 0.025       .   A
C366       C367 0.025       .   A
C366       H373 0.020       .   A
C367       C368 0.025       .   A
C367       H372 0.020       .   A
C368       C369 0.025       .   A
C368       N371 0.025       .   A
C369       C370 0.025       .   A
C369       H375 0.020       .   A
C370       C374 0.028       .   A
N371       N376 0.024       .   A
C374       H389 0.020       .   A
C374       H390 0.020       .   A
C374       H391 0.020       .   A
N376       C377 0.028       .   A
C377       C378 0.029       .   A
C377       N381 0.027       .   A
C377       H388 0.020       .   A
C378       C379 0.029       .   A
C378       H385 0.020       .   A
C378       H387 0.020       .   A
C379       N380 0.027       .   A
C379       C382 0.029       .   A
C379       H386 0.020       .   A
N380       N381 0.027       .   A
N380       H384 0.019       .   A
N381       H383 0.019       .   A
C382       C392 0.025       .   A
C382       H394 0.020       .   A
C392       H393 0.020       .   A
C335       C336 0.025       .   A
C335       C340 0.025       .   A
C336       C337 0.025       .   A
C336       H343 0.020       .   A
C337       C338 0.025       .   A
C337       H342 0.020       .   A
C338       C339 0.025       .   A
C338       N341 0.025       .   A
C339       C340 0.025       .   A
C339       H345 0.020       .   A
C340       C344 0.028       .   A
N341       N346 0.024       .   A
C344       H359 0.020       .   A
C344       H360 0.020       .   A
C344       H361 0.020       .   A
N346       C347 0.028       .   A
C347       C348 0.029       .   A
C347       N351 0.027       .   A
C347       H358 0.020       .   A
C348       C349 0.029       .   A
C348       H355 0.020       .   A
C348       H357 0.020       .   A
C349       N350 0.027       .   A
C349       C352 0.029       .   A
C349       H356 0.020       .   A
N350       N351 0.027       .   A
N350       H354 0.019       .   A
N351       H353 0.019       .   A
C352       C362 0.025       .   A
C352       H364 0.020       .   A
C362       H363 0.020       .   A
C305       C306 0.025       .   A
C305       C310 0.025       .   A
C306       C307 0.025       .   A
C306       H313 0.020       .   A
C307       C308 0.025       .   A
C307       H312 0.020       .   A
C308       C309 0.025       .   A
C308       N311 0.025       .   A
C309       C310 0.025       .   A
C309       H315 0.020       .   A
C310       C314 0.028       .   A
N311       N316 0.024       .   A
C314       H329 0.020       .   A
C314       H330 0.020       .   A
C314       H331 0.020       .   A
N316       C317 0.028       .   A
C317       C318 0.029       .   A
C317       N321 0.027       .   A
C317       H328 0.020       .   A
C318       C319 0.029       .   A
C318       H325 0.020       .   A
C318       H327 0.020       .   A
C319       N320 0.027       .   A
C319       C322 0.029       .   A
C319       H326 0.020       .   A
N320       N321 0.027       .   A
N320       H324 0.019       .   A
N321       H323 0.019       .   A
C322       C332 0.025       .   A
C322       H334 0.020       .   A
C332       H333 0.020       .   A
C275       C276 0.025       .   A
C275       C280 0.025       .   A
C276       C277 0.025       .   A
C276       H283 0.020       .   A
C277       C278 0.025       .   A
C277       H282 0.020       .   A
C278       C279 0.025       .   A
C278       N281 0.025       .   A
C279       C280 0.025       .   A
C279       H285 0.020       .   A
C280       C284 0.028       .   A
N281       N286 0.024       .   A
C284       H299 0.020       .   A
C284       H300 0.020       .   A
C284       H301 0.020       .   A
N286       C287 0.028       .   A
C287       C288 0.029       .   A
C287       N291 0.027       .   A
C287       H298 0.020       .   A
C288       C289 0.029       .   A
C288       H295 0.020       .   A
C288       H297 0.020       .   A
C289       N290 0.027       .   A
C289       C292 0.029       .   A
C289       H296 0.020       .   A
N290       N291 0.027       .   A
N290       H294 0.019       .   A
N291       H293 0.019       .   A
C292       C302 0.025       .   A
C292       H304 0.020       .   A
C302       H303 0.020       .   A
C245       C246 0.025       .   A
C245       C250 0.025       .   A
C246       C247 0.025       .   A
C246       H253 0.020       .   A
C247       C248 0.025       .   A
C247       H252 0.020       .   A
C248       C249 0.025       .   A
C248       N251 0.025       .   A
C249       C250 0.025       .   A
C249       H255 0.020       .   A
C250       C254 0.028       .   A
N251       N256 0.024       .   A
C254       H269 0.020       .   A
C254       H270 0.020       .   A
C254       H271 0.020       .   A
N256       C257 0.028       .   A
C257       C258 0.029       .   A
C257       N261 0.027       .   A
C257       H268 0.020       .   A
C258       C259 0.029       .   A
C258       H265 0.020       .   A
C258       H267 0.020       .   A
C259       N260 0.027       .   A
C259       C262 0.029       .   A
C259       H266 0.020       .   A
N260       N261 0.027       .   A
N260       H264 0.019       .   A
N261       H263 0.019       .   A
C262       C272 0.025       .   A
C262       H274 0.020       .   A
C272       H273 0.020       .   A
C215       C216 0.025       .   A
C215       C220 0.025       .   A
C216       C217 0.025       .   A
C216       H223 0.020       .   A
C217       C218 0.025       .   A
C217       H222 0.020       .   A
C218       C219 0.025       .   A
C218       N221 0.025       .   A
C219       C220 0.025       .   A
C219       H225 0.020       .   A
C220       C224 0.028       .   A
N221       N226 0.024       .   A
C224       H239 0.020       .   A
C224       H240 0.020       .   A
C224       H241 0.020       .   A
N226       C227 0.028       .   A
C227       C228 0.029       .   A
C227       N231 0.027       .   A
C227       H238 0.020       .   A
C228       C229 0.029       .   A
C228       H235 0.020       .   A
C228       H237 0.020       .   A
C229       N230 0.027       .   A
C229       C232 0.029       .   A
C229       H236 0.020       .   A
N230       N231 0.027       .   A
N230       H234 0.019       .   A
N231       H233 0.019       .   A
C232       C242 0.025       .   A
C232       H244 0.020       .   A
C242       H243 0.020       .   A
C185       C186 0.025       .   A
C185       C190 0.025       .   A
C186       C187 0.025       .   A
C186       H193 0.020       .   A
C187       C188 0.025       .   A
C187       H192 0.020       .   A
C188       C189 0.025       .   A
C188       N191 0.025       .   A
C189       C190 0.025       .   A
C189       H195 0.020       .   A
C190       C194 0.028       .   A
N191       N196 0.024       .   A
C194       H209 0.020       .   A
C194       H210 0.020       .   A
C194       H211 0.020       .   A
N196       C197 0.028       .   A
C197       C198 0.029       .   A
C197       N201 0.027       .   A
C197       H208 0.020       .   A
C198       C199 0.029       .   A
C198       H205 0.020       .   A
C198       H207 0.020       .   A
C199       N200 0.027       .   A
C199       C202 0.029       .   A
C199       H206 0.020       .   A
N200       N201 0.027       .   A
N200       H204 0.019       .   A
N201       H203 0.019       .   A
C202       C212 0.025       .   A
C202       H214 0.020       .   A
C212       H213 0.020       .   A
