data_pcu_v1-6c_Zn_1_Ch_1-76_fer_tobacco
_audit_creation_date              2021-04-07
_audit_creation_method            'tobacco_3.0'
_symmetry_space_group_name_H-M    'P1'
_symmetry_Int_Tables_number       1
_symmetry_cell_setting            triclinic
loop_
_symmetry_equiv_pos_as_xyz
  x,y,z
_cell_length_a                    34.77637391049764
_cell_length_b                    34.77637391049764
_cell_length_c                    34.77637391049764
_cell_angle_alpha                 90.0
_cell_angle_beta                  90.0
_cell_angle_gamma                 90.0
loop_
_atom_site_label
_atom_site_type_symbol
_atom_site_fract_x
_atom_site_fract_y
_atom_site_fract_z
_atom_site_charge
Zn1       Zn   -0.0322402791   -0.0322402791    0.0322402791          1.4972
Zn2       Zn    0.0322402791    0.0322402791    0.0322402791          1.4936
Zn3       Zn    0.0322402791   -0.0322402791   -0.0322402791          1.4911
Zn4       Zn   -0.0322402791    0.0322402791   -0.0322402791          1.4948
O5         O    0.0000000000    0.0000000000    0.0000000000         -2.2774
O6         O   -0.0236942472   -0.0236942472    0.0861676956         -1.1837
O7         O    0.0861676956    0.0236942472    0.0236942472         -1.1819
O8         O    0.0236942472   -0.0861676956   -0.0236942472         -1.1771
O9         O    0.0236942472    0.0236942472    0.0861676956         -1.1839
O10        O   -0.0236942472   -0.0861676956    0.0236942472         -1.1799
O11        O    0.0861676956   -0.0236942472   -0.0236942472         -1.1857
O12        O   -0.0236942472    0.0236942472   -0.0861676956         -1.1796
O13        O    0.0236942472    0.0861676956    0.0236942472         -1.1872
O14        O    0.0236942472   -0.0236942472   -0.0861676956         -1.1811
O15        O   -0.0236942472    0.0861676956   -0.0236942472         -1.1858
O16        O   -0.0861676956    0.0236942472   -0.0236942472         -1.1849
O17        O   -0.0861676956   -0.0236942472    0.0236942472         -1.1827
C18        C   -0.0000000000   -0.0000000000    0.1030239671          0.3351
C19        C    0.1030239671   -0.0000000000   -0.0000000000            0.34
C20        C   -0.0000000000   -0.1030239671    0.0000000000          0.3296
C21        C    0.0000000000    0.0000000000   -0.1030239671          0.3334
C22        C    0.0000000000    0.1030239671   -0.0000000000          0.3448
C23        C   -0.1030239671    0.0000000000    0.0000000000          0.3353
Zn24      Zn    0.9677597209   -0.0322402791    0.4677597209          1.4972
Zn25      Zn    1.0322402791   -0.0322402791    0.5322402791          1.4936
Zn26      Zn    1.0322402791    0.0322402791    0.4677597209          1.4911
Zn27      Zn    0.9677597209    0.0322402791    0.5322402791          1.4948
O28        O    1.0000000000    0.0000000000    0.5000000000         -2.2774
O29        O    0.9763057528   -0.0861676956    0.4763057528         -1.1837
O30        O    1.0861676956   -0.0236942472    0.5236942472         -1.1819
O31        O    1.0236942472    0.0236942472    0.4138323044         -1.1771
O32        O    1.0236942472   -0.0861676956    0.5236942472         -1.1839
O33        O    0.9763057528   -0.0236942472    0.4138323044         -1.1799
O34        O    1.0861676956    0.0236942472    0.4763057528         -1.1857
O35        O    0.9763057528    0.0861676956    0.5236942472         -1.1796
O36        O    1.0236942472   -0.0236942472    0.5861676956         -1.1872
O37        O    1.0236942472    0.0861676956    0.4763057528         -1.1811
O38        O    0.9763057528    0.0236942472    0.5861676956         -1.1858
O39        O    0.9138323044    0.0236942472    0.5236942472         -1.1849
O40        O    0.9138323044   -0.0236942472    0.4763057528         -1.1827
C41        C    1.0000000000   -0.1030239671    0.5000000000          0.3351
C42        C    1.1030239671    0.0000000000    0.5000000000            0.34
C43        C    1.0000000000    0.0000000000    0.3969760329          0.3296
C44        C    1.0000000000    0.1030239671    0.5000000000          0.3334
C45        C    1.0000000000    0.0000000000    0.6030239671          0.3448
C46        C    0.8969760329    0.0000000000    0.5000000000          0.3353
Zn47      Zn    1.0322402791    0.4677597209   -0.0322402791          1.4972
Zn48      Zn    0.9677597209    0.4677597209    0.0322402791          1.4936
Zn49      Zn    1.0322402791    0.5322402791    0.0322402791          1.4911
Zn50      Zn    0.9677597209    0.5322402791   -0.0322402791          1.4948
O51        O    1.0000000000    0.5000000000    0.0000000000         -2.2774
O52        O    1.0236942472    0.4138323044   -0.0236942472         -1.1837
O53        O    0.9763057528    0.4763057528    0.0861676956         -1.1819
O54        O    1.0861676956    0.5236942472    0.0236942472         -1.1771
O55        O    0.9763057528    0.4138323044    0.0236942472         -1.1839
O56        O    1.0861676956    0.4763057528   -0.0236942472         -1.1799
O57        O    1.0236942472    0.5236942472    0.0861676956         -1.1857
O58        O    0.9763057528    0.5861676956   -0.0236942472         -1.1796
O59        O    0.9138323044    0.4763057528    0.0236942472         -1.1872
O60        O    1.0236942472    0.5861676956    0.0236942472         -1.1811
O61        O    0.9138323044    0.5236942472   -0.0236942472         -1.1858
O62        O    0.9763057528    0.5236942472   -0.0861676956         -1.1849
O63        O    1.0236942472    0.4763057528   -0.0861676956         -1.1827
C64        C    1.0000000000    0.3969760329    0.0000000000          0.3351
C65        C    1.0000000000    0.5000000000    0.1030239671            0.34
C66        C    1.1030239671    0.5000000000    0.0000000000          0.3296
C67        C    1.0000000000    0.6030239671    0.0000000000          0.3334
C68        C    0.8969760329    0.5000000000    0.0000000000          0.3448
C69        C    1.0000000000    0.5000000000   -0.1030239671          0.3353
Zn70      Zn    0.9677597209    0.4677597209    0.5322402791          1.4972
Zn71      Zn    1.0322402791    0.4677597209    0.4677597209          1.4936
Zn72      Zn    0.9677597209    0.5322402791    0.4677597209          1.4911
Zn73      Zn    1.0322402791    0.5322402791    0.5322402791          1.4948
O74        O    1.0000000000    0.5000000000    0.5000000000         -2.2774
O75        O    0.9763057528    0.4138323044    0.5236942472         -1.1837
O76        O    1.0236942472    0.4763057528    0.4138323044         -1.1819
O77        O    0.9138323044    0.5236942472    0.4763057528         -1.1771
O78        O    1.0236942472    0.4138323044    0.4763057528         -1.1839
O79        O    0.9138323044    0.4763057528    0.5236942472         -1.1799
O80        O    0.9763057528    0.5236942472    0.4138323044         -1.1857
O81        O    1.0236942472    0.5861676956    0.5236942472         -1.1796
O82        O    1.0861676956    0.4763057528    0.4763057528         -1.1872
O83        O    0.9763057528    0.5861676956    0.4763057528         -1.1811
O84        O    1.0861676956    0.5236942472    0.5236942472         -1.1858
O85        O    1.0236942472    0.5236942472    0.5861676956         -1.1849
O86        O    0.9763057528    0.4763057528    0.5861676956         -1.1827
C87        C    1.0000000000    0.3969760329    0.5000000000          0.3351
C88        C    1.0000000000    0.5000000000    0.3969760329            0.34
C89        C    0.8969760329    0.5000000000    0.5000000000          0.3296
C90        C    1.0000000000    0.6030239671    0.5000000000          0.3334
C91        C    1.1030239671    0.5000000000    0.5000000000          0.3448
C92        C    1.0000000000    0.5000000000    0.6030239671          0.3353
Zn93      Zn    0.4677597209    0.9677597209   -0.0322402791          1.4972
Zn94      Zn    0.4677597209    1.0322402791    0.0322402791          1.4936
Zn95      Zn    0.5322402791    0.9677597209    0.0322402791          1.4911
Zn96      Zn    0.5322402791    1.0322402791   -0.0322402791          1.4948
O97        O    0.5000000000    1.0000000000    0.0000000000         -2.2774
O98        O    0.4138323044    0.9763057528   -0.0236942472         -1.1837
O99        O    0.4763057528    1.0236942472    0.0861676956         -1.1819
O100       O    0.5236942472    0.9138323044    0.0236942472         -1.1771
O101       O    0.4138323044    1.0236942472    0.0236942472         -1.1839
O102       O    0.4763057528    0.9138323044   -0.0236942472         -1.1799
O103       O    0.5236942472    0.9763057528    0.0861676956         -1.1857
O104       O    0.5861676956    1.0236942472   -0.0236942472         -1.1796
O105       O    0.4763057528    1.0861676956    0.0236942472         -1.1872
O106       O    0.5861676956    0.9763057528    0.0236942472         -1.1811
O107       O    0.5236942472    1.0861676956   -0.0236942472         -1.1858
O108       O    0.5236942472    1.0236942472   -0.0861676956         -1.1849
O109       O    0.4763057528    0.9763057528   -0.0861676956         -1.1827
C110       C    0.3969760329    1.0000000000    0.0000000000          0.3351
C111       C    0.5000000000    1.0000000000    0.1030239671            0.34
C112       C    0.5000000000    0.8969760329    0.0000000000          0.3296
C113       C    0.6030239671    1.0000000000    0.0000000000          0.3334
C114       C    0.5000000000    1.1030239671    0.0000000000          0.3448
C115       C    0.5000000000    1.0000000000   -0.1030239671          0.3353
Zn116     Zn    0.4677597209    1.0322402791    0.5322402791          1.4972
Zn117     Zn    0.4677597209    0.9677597209    0.4677597209          1.4936
Zn118     Zn    0.5322402791    1.0322402791    0.4677597209          1.4911
Zn119     Zn    0.5322402791    0.9677597209    0.5322402791          1.4948
O120       O    0.5000000000    1.0000000000    0.5000000000         -2.2774
O121       O    0.4138323044    1.0236942472    0.5236942472         -1.1837
O122       O    0.4763057528    0.9763057528    0.4138323044         -1.1819
O123       O    0.5236942472    1.0861676956    0.4763057528         -1.1771
O124       O    0.4138323044    0.9763057528    0.4763057528         -1.1839
O125       O    0.4763057528    1.0861676956    0.5236942472         -1.1799
O126       O    0.5236942472    1.0236942472    0.4138323044         -1.1857
O127       O    0.5861676956    0.9763057528    0.5236942472         -1.1796
O128       O    0.4763057528    0.9138323044    0.4763057528         -1.1872
O129       O    0.5861676956    1.0236942472    0.4763057528         -1.1811
O130       O    0.5236942472    0.9138323044    0.5236942472         -1.1858
O131       O    0.5236942472    0.9763057528    0.5861676956         -1.1849
O132       O    0.4763057528    1.0236942472    0.5861676956         -1.1915
C133       C    0.3969760329    1.0000000000    0.5000000000          0.3351
C134       C    0.5000000000    1.0000000000    0.3969760329            0.34
C135       C    0.5000000000    1.1030239671    0.5000000000          0.3296
C136       C    0.6030239671    1.0000000000    0.5000000000          0.3334
C137       C    0.5000000000    0.8969760329    0.5000000000          0.3448
C138       C    0.5000000000    1.0000000000    0.6030239671          0.3353
Zn139     Zn    0.4677597209    0.5322402791   -0.0322402791          1.4972
Zn140     Zn    0.4677597209    0.4677597209    0.0322402791          1.4936
Zn141     Zn    0.5322402791    0.4677597209   -0.0322402791          1.4911
Zn142     Zn    0.5322402791    0.5322402791    0.0322402791          1.4948
O143       O    0.5000000000    0.5000000000    0.0000000000         -2.2774
O144       O    0.4138323044    0.5236942472   -0.0236942472         -1.1837
O145       O    0.4763057528    0.4138323044    0.0236942472         -1.1819
O146       O    0.5236942472    0.4763057528   -0.0861676956         -1.1771
O147       O    0.4138323044    0.4763057528    0.0236942472         -1.1839
O148       O    0.4763057528    0.5236942472   -0.0861676956         -1.1799
O149       O    0.5236942472    0.4138323044   -0.0236942472         -1.1857
O150       O    0.5861676956    0.5236942472    0.0236942472         -1.1796
O151       O    0.4763057528    0.4763057528    0.0861676956         -1.1872
O152       O    0.5861676956    0.4763057528   -0.0236942472         -1.1811
O153       O    0.5236942472    0.5236942472    0.0861676956         -1.1858
O154       O    0.5236942472    0.5861676956    0.0236942472         -1.1849
O155       O    0.4763057528    0.5861676956   -0.0236942472         -1.1827
C156       C    0.3969760329    0.5000000000    0.0000000000          0.3351
C157       C    0.5000000000    0.3969760329    0.0000000000            0.34
C158       C    0.5000000000    0.5000000000   -0.1030239671          0.3296
C159       C    0.6030239671    0.5000000000    0.0000000000          0.3334
C160       C    0.5000000000    0.5000000000    0.1030239671          0.3448
C161       C    0.5000000000    0.6030239671    0.0000000000          0.3353
Zn162     Zn    0.5322402791    0.5322402791    0.4677597209          1.4972
Zn163     Zn    0.4677597209    0.5322402791    0.5322402791          1.4936
Zn164     Zn    0.4677597209    0.4677597209    0.4677597209          1.4911
Zn165     Zn    0.5322402791    0.4677597209    0.5322402791          1.4948
O166       O    0.5000000000    0.5000000000    0.5000000000         -2.2774
O167       O    0.5236942472    0.5861676956    0.4763057528         -1.1837
O168       O    0.4138323044    0.5236942472    0.5236942472         -1.1819
O169       O    0.4763057528    0.4763057528    0.4138323044         -1.1771
O170       O    0.4763057528    0.5861676956    0.5236942472         -1.1839
O171       O    0.5236942472    0.5236942472    0.4138323044         -1.1799
O172       O    0.4138323044    0.4763057528    0.4763057528         -1.1857
O173       O    0.5236942472    0.4138323044    0.5236942472         -1.1796
O174       O    0.4763057528    0.5236942472    0.5861676956         -1.1872
O175       O    0.4763057528    0.4138323044    0.4763057528         -1.1811
O176       O    0.5236942472    0.4763057528    0.5861676956         -1.1858
O177       O    0.5861676956    0.4763057528    0.5236942472         -1.1849
O178       O    0.5861676956    0.5236942472    0.4763057528         -1.1827
C179       C    0.5000000000    0.6030239671    0.5000000000          0.3351
C180       C    0.3969760329    0.5000000000    0.5000000000            0.34
C181       C    0.5000000000    0.5000000000    0.3969760329          0.3296
C182       C    0.5000000000    0.3969760329    0.5000000000          0.3334
C183       C    0.5000000000    0.5000000000    0.6030239671          0.3448
C184       C    0.6030239671    0.5000000000    0.5000000000          0.3353
C875       C    0.5000000000    0.5000000000   -0.1473069048          0.5583
C876       C    0.5308018468    0.5133746137   -0.1679756336          0.5483
C877       C    0.5313680771    0.5155114976   -0.2071108200          0.5486
C878       C    0.5029123614    0.5047895628   -0.2311741758          0.5588
C879       C    0.4724788045    0.4906732754   -0.2107160863         -0.4306
C880       C    0.4707807694    0.4884509023   -0.1709251325         -0.4309
C881       C    0.5102704094    0.5107023779   -0.2778391002          0.5564
H882       H    0.5573649455    0.5270179089   -0.2202730438          0.5398
C883       C    0.5931135241    0.4974375444   -0.1442744023          0.5592
C884       C    0.4108445137    0.5017602165   -0.1405654766          0.5574
C885       C    0.4489424522    0.4811332855   -0.2299926532         -0.4217
C886       C    0.4804899217    0.5154001170   -0.3131980352          0.5548
C887       C    0.5000000000    0.5000000000   -0.3526930952          -0.431
N888       N    0.5398451129    0.4948180068   -0.3379751963          -0.428
N889       N    0.5368357687    0.4832698720   -0.2967971817         -0.4208
H890       H    0.5640974638    0.4845299693   -0.2860595130         -0.4227
H891       H    0.5530620755    0.5209594498   -0.3370551609          0.5508
H892       H    0.4542169584    0.4990970262   -0.3082042835         -0.4321
H893       H    0.4885204614    0.4712072109   -0.3579189865         -0.4074
H894       H    0.4724568996    0.5456321421   -0.3160758921          0.5307
H895       H    0.5257784792    0.5380823007   -0.2786918790          0.5342
N896       N    0.4207948765    0.4714463253   -0.2439167455         -0.4129
H897       H    0.5819961351    0.4755253592   -0.1246769832         -0.4241
H898       H    0.6181426541    0.5112516753   -0.1311660595          0.5472
H899       H    0.6015775831    0.4841430057   -0.1714599669         -0.4288
O900       O    0.5639146656    0.5264381931   -0.1511211226          0.5365
H901       H    0.3898181593    0.4873436477   -0.1221989358         -0.4317
H902       H    0.4252725879    0.5242710813   -0.1239788083          0.5383
H903       H    0.3963380913    0.5144799243   -0.1653562335          0.5486
O904       O    0.4385643308    0.4735537470   -0.1536074862         -0.4195
C845       C    0.5000000000    0.5000000000    0.1473069048          0.5583
C846       C    0.5308018468    0.4866253863    0.1679756336          0.5483
C847       C    0.5313680771    0.4844885024    0.2071108200          0.5486
C848       C    0.5029123614    0.4952104372    0.2311741758          0.5588
C849       C    0.4724788045    0.5093267246    0.2107160863         -0.4306
C850       C    0.4707807694    0.5115490977    0.1709251325         -0.4309
C851       C    0.5102704094    0.4892976221    0.2778391002          0.5564
H852       H    0.5573649455    0.4729820911    0.2202730438          0.5398
C853       C    0.5931135241    0.5025624556    0.1442744023          0.5592
C854       C    0.4108445137    0.4982397835    0.1405654766          0.5574
C855       C    0.4489424522    0.5188667145    0.2299926532         -0.4217
C856       C    0.4804899217    0.4845998830    0.3131980352          0.5548
C857       C    0.5000000000    0.5000000000    0.3526930952          -0.431
N858       N    0.5398451129    0.5051819932    0.3379751963          -0.428
N859       N    0.5368357687    0.5167301280    0.2967971817         -0.4208
H860       H    0.5640974638    0.5154700307    0.2860595130         -0.4227
H861       H    0.5530620755    0.4790405502    0.3370551609          0.5508
H862       H    0.4542169584    0.5009029738    0.3082042835         -0.4321
H863       H    0.4885204614    0.5287927891    0.3579189865         -0.4074
H864       H    0.4724568996    0.4543678579    0.3160758921          0.5307
H865       H    0.5257784792    0.4619176993    0.2786918790          0.5342
N866       N    0.4207948765    0.5285536747    0.2439167455         -0.4129
H867       H    0.5819961351    0.5244746408    0.1246769832         -0.4241
H868       H    0.6181426541    0.4887483247    0.1311660595          0.5472
H869       H    0.6015775831    0.5158569943    0.1714599669         -0.4288
O870       O    0.5639146656    0.4735618069    0.1511211226          0.5365
H871       H    0.3898181593    0.5126563523    0.1221989358         -0.4317
H872       H    0.4252725879    0.4757289187    0.1239788083          0.5383
H873       H    0.3963380913    0.4855200757    0.1653562335          0.5486
O874       O    0.4385643308    0.5264462530    0.1536074862         -0.4195
C815       C    0.5000000000    0.8526930952    0.5000000000          0.5583
C816       C    0.5309391911    0.8320243664    0.5130537546          0.5483
C817       C    0.5328761588    0.7928891800    0.5119883694          0.5486
C818       C    0.5054757786    0.7688258242    0.4988009964          0.5588
C819       C    0.4742541898    0.7892839137    0.4865256818         -0.4306
C820       C    0.4714740936    0.8290748675    0.4868311823         -0.4309
C821       C    0.5148330824    0.7221608998    0.5000432194          0.5564
H822       H    0.5591468137    0.7797269562    0.5228551704          0.5398
C823       C    0.5624213806    0.8557255977    0.5691394663          0.5592
C824       C    0.4397303703    0.8594345234    0.4342780794          0.5574
C825       C    0.4511047755    0.7700073468    0.4760817408         -0.4217
C826       C    0.4976748539    0.6868019648    0.4752532738          0.5548
C827       C    0.5000000000    0.6473069048    0.5000000000          -0.431
N828       N    0.5237553721    0.6620248037    0.5324063014          -0.428
N829       N    0.5133226032    0.7032028183    0.5382005142         -0.4208
H830       H    0.5330528186    0.7139404870    0.5570553932         -0.4227
H831       H    0.5517930926    0.6629448391    0.5239240037          0.5508
H832       H    0.4677430617    0.6917957165    0.4674978125         -0.4321
H833       H    0.4712432731    0.6420810135    0.5115695793         -0.4074
H834       H    0.5140035754    0.6839241079    0.4485722385          0.5307
H835       H    0.5453484128    0.7213081210    0.4923637003          0.5342
N836       N    0.4246659387    0.7560832545    0.4624028838         -0.4129
H837       H    0.5388929801    0.8753230168    0.5762214557         -0.4241
H838       H    0.5896937238    0.8688339405    0.5777130802          0.5472
H839       H    0.5586450157    0.8285400331    0.5844405815         -0.4288
O840       O    0.5632485814    0.8488788774    0.5279942758          0.5365
H841       H    0.4147852227    0.8778010642    0.4290164596         -0.4317
H842       H    0.4659772699    0.8760211917    0.4291782142          0.5383
H843       H    0.4389198394    0.8346437665    0.4150019206          0.5486
O844       O    0.4384568151    0.8463925138    0.4738049214         -0.4195
C785       C    0.5000000000    1.1473069048    0.5000000000          0.5583
C786       C    0.4669844262    1.1679756336    0.4938676314          0.5483
C787       C    0.4659537581    1.2071108200    0.4919119697          0.5486
C788       C    0.4960884451    1.2311741758    0.4959848414          0.5588
C789       C    0.5289112900    1.2107160863    0.5029225502         -0.4306
C790       C    0.5310641381    1.1709251325    0.5047079103         -0.4309
C791       C    0.4875925555    1.2778391002    0.4918711917          0.5564
H792       H    0.4380396039    1.2202730438    0.4865235874          0.5398
C793       C    0.4098285208    1.1442744023    0.5233623391          0.5592
C794       C    0.5864938602    1.1405654766    0.4783064235          0.5574
C795       C    0.5539868590    1.2299926532    0.5069458732         -0.4217
C796       C    0.5155630578    1.3131980352    0.4806196493          0.5548
C797       C    0.5000000000    1.3526930952    0.5000000000          -0.431
N798       N    0.4623293251    1.3379751963    0.5139787814          -0.428
N799       N    0.4678498695    1.2967971817    0.5245589119         -0.4208
H800       H    0.4409990652    1.2860595130    0.5294397080         -0.4227
H801       H    0.4435906438    1.3370551609    0.4914637872          0.5508
H802       H    0.5448211344    1.3082042835    0.4906208652         -0.4321
H803       H    0.5176395578    1.3579189865    0.5254882426         -0.4074
H804       H    0.5166173562    1.3160758921    0.4493563603          0.5307
H805       H    0.4663435083    1.2786918790    0.4686626073          0.5342
N806       N    0.5835893229    1.2439167455    0.5100791380         -0.4129
H807       H    0.4255733203    1.1246769832    0.5422261004         -0.4241
H808       H    0.3823403778    1.1311660595    0.5155080693          0.5472
H809       H    0.4045587641    1.1714599669    0.5382154439         -0.4288
O810       O    0.4317863448    1.1511211226    0.4885562344          0.5365
H811       H    0.6102160121    1.1221989358    0.4876447606         -0.4317
H812       H    0.5673884119    1.1239788083    0.4596010711          0.5383
H813       H    0.5977811341    1.1653562335    0.4626595483          0.5486
O814       O    0.5657995050    1.1536074862    0.5120071185         -0.4195
C755       C    0.5000000000    0.8526930952    0.0000000000          0.5583
C756       C    0.4669039629    0.8320243664   -0.0056821112          0.5483
C757       C    0.4652597454    0.7928891800   -0.0042044651          0.5486
C758       C    0.4949399010    0.7688258242    0.0024118786          0.5588
C759       C    0.5281340670    0.7892839137    0.0072717441         -0.4306
C760       C    0.5307720242    0.8290748675    0.0063425252         -0.4309
C761       C    0.4855450995    0.7221608998    0.0033283711          0.5564
H762       H    0.4372070578    0.7797269562   -0.0088176409          0.5398
C763       C    0.4235011576    0.8557255977   -0.0531471699          0.5592
C764       C    0.5736268220    0.8594345234    0.0503079535          0.5574
C765       C    0.5530510745    0.7700073468    0.0121823477         -0.4217
C766       C    0.5078874213    0.6868019648    0.0235710701          0.5548
C767       C    0.5000000000    0.6473069048    0.0000000000          -0.431
N768       N    0.4695024690    0.6620248037   -0.0261607851          -0.428
N769       N    0.4783457435    0.7032028183   -0.0341740284         -0.4208
H770       H    0.4548473132    0.7139404870   -0.0480524878         -0.4227
H771       H    0.4441255543    0.6629448391   -0.0115294714          0.5508
H772       H    0.5387985017    0.6917957165    0.0243223874         -0.4321
H773       H    0.5253756032    0.6420810135   -0.0178012154         -0.4074
H774       H    0.4980484465    0.6839241079    0.0532644930          0.5307
H775       H    0.4575729719    0.7213081210    0.0177408823          0.5342
N776       N    0.5819065165    0.7560832545    0.0194958069         -0.4129
H777       H    0.4448048930    0.8753230168   -0.0653901703         -0.4241
H778       H    0.3949940552    0.8688339405   -0.0552995341          0.5472
H779       H    0.4237019315    0.8285400331   -0.0689061275         -0.4288
O780       O    0.4320448461    0.8488788774   -0.0128902904          0.5365
H781       H    0.5991150327    0.8778010642    0.0497637575         -0.4317
H782       H    0.5492253079    0.8760211917    0.0612383913          0.5383
H783       H    0.5787961931    0.8346437665    0.0688957145          0.5486
O784       O    0.5658855428    0.8463925138    0.0115256666         -0.4195
C725       C    0.5000000000    1.3526930952    0.0000000000          0.5583
C726       C    0.4750393680    1.3320243664   -0.0224633236          0.5483
C727       C    0.4728603547    1.2928891800   -0.0220907780          0.5486
C728       C    0.4944334481    1.2688258242   -0.0006597424          0.5588
C729       C    0.5199157625    1.2892839137    0.0211604913         -0.4306
C730       C    0.5226426688    1.3290748675    0.0217819798         -0.4309
C731       C    0.4859984873    1.2221608998   -0.0048969219          0.5564
H732       H    0.4515950164    1.2797269562   -0.0409592717          0.5398
C733       C    0.4636535496    1.3557255977   -0.0857649701          0.5592
C734       C    0.5354321210    1.3594345234    0.0818313137          0.5574
C735       C    0.5383703022    1.2700073468    0.0386075900         -0.4217
C736       C    0.4940953792    1.1868019648    0.0241441963          0.5548
C737       C    0.5000000000    1.1473069048    0.0000000000          -0.431
N738       N    0.4881629772    1.1620248037   -0.0383975385          -0.428
N739       N    0.4999177388    1.2032028183   -0.0404569435         -0.4208
H740       H    0.4874475628    1.2139404870   -0.0647320866         -0.4227
H741       H    0.4588934058    1.1629448391   -0.0395617278          0.5508
H742       H    0.5198386939    1.1917957165    0.0412714003         -0.4321
H743       H    0.5309596753    1.1420810135   -0.0015175688         -0.4074
H744       H    0.4699316091    1.1839241079    0.0440091654          0.5307
H745       H    0.4546506573    1.2213081210   -0.0076307752          0.5342
N746       N    0.5588739378    1.2560832545    0.0601882330         -0.4129
H747       H    0.4882038645    1.3753230168   -0.0847539108         -0.4241
H748       H    0.4406909757    1.3688339405   -0.1027945843          0.5472
H749       H    0.4722311166    1.3285400331   -0.0989865586         -0.4288
O750       O    0.4494017391    1.3488788774   -0.0471580166          0.5365
H751       H    0.5572800335    1.3778010642    0.0949695690         -0.4317
H752       H    0.5089620296    1.3760211917    0.0780573733          0.5383
H753       H    0.5298873178    1.3346437665    0.1003105565          0.5486
O754       O    0.5495758699    1.3463925138    0.0448996533         -0.4195
C695       C    0.5000000000    1.0000000000   -0.1473069048          0.5583
C696       C    0.5133746137    0.9691981532   -0.1679756336          0.5483
C697       C    0.5155114976    0.9686319229   -0.2071108200          0.5486
C698       C    0.5047895628    0.9970876386   -0.2311741758          0.5588
C699       C    0.4906732754    1.0275211955   -0.2107160863         -0.4306
C700       C    0.4884509023    1.0292192306   -0.1709251325         -0.4309
C701       C    0.5107023779    0.9897295906   -0.2778391002          0.5564
H702       H    0.5270179089    0.9426350545   -0.2202730438          0.5398
C703       C    0.4974375444    0.9068864759   -0.1442744023          0.5592
C704       C    0.5017602165    1.0891554863   -0.1405654766          0.5574
C705       C    0.4811332855    1.0510575478   -0.2299926532         -0.4217
C706       C    0.5154001170    1.0195100783   -0.3131980352          0.5548
C707       C    0.5000000000    1.0000000000   -0.3526930952          -0.431
N708       N    0.4948180068    0.9601548871   -0.3379751963          -0.428
N709       N    0.4832698720    0.9631642313   -0.2967971817         -0.4208
H710       H    0.4845299693    0.9359025362   -0.2860595130         -0.4227
H711       H    0.5209594498    0.9469379245   -0.3370551609          0.5508
H712       H    0.4990970262    1.0457830416   -0.3082042835         -0.4321
H713       H    0.4712072109    1.0114795386   -0.3579189865         -0.4074
H714       H    0.5456321421    1.0275431004   -0.3160758921          0.5307
H715       H    0.5380823007    0.9742215208   -0.2786918790          0.5342
N716       N    0.4714463253    1.0792051235   -0.2439167455         -0.4129
H717       H    0.4755253592    0.9180038649   -0.1246769832         -0.4241
H718       H    0.5112516753    0.8818573459   -0.1311660595          0.5472
H719       H    0.4841430057    0.8984224169   -0.1714599669         -0.4288
O720       O    0.5264381931    0.9360853344   -0.1511211226          0.5365
H721       H    0.4873436477    1.1101818407   -0.1221989358         -0.4317
H722       H    0.5242710813    1.0747274121   -0.1239788083          0.5383
H723       H    0.5144799243    1.1036619087   -0.1653562335          0.5486
O724       O    0.4735537470    1.0614356692   -0.1536074862         -0.4195
C665       C    0.5000000000    1.0000000000    0.1473069048          0.5583
C666       C    0.4862372479    0.9693696113    0.1679756336          0.5483
C667       C    0.4840933798    0.9688304274    0.2071108200          0.5486
C668       C    0.4951740196    0.9971483911    0.2311741758          0.5588
C669       C    0.5096737325    1.0274011476    0.2107160863         -0.4306
C670       C    0.5119173842    1.0290709658    0.1709251325         -0.4309
C671       C    0.4891687016    0.9898656437    0.2778391002          0.5564
H672       H    0.4722593957    0.9429810273    0.2202730438          0.5398
C673       C    0.5013856865    0.9068615309    0.1442744023          0.5592
C674       C    0.4993664756    1.0891706104    0.1405654766          0.5574
C675       C    0.5195103616    1.0508150754    0.2299926532         -0.4217
C676       C    0.4848476381    1.0197031137    0.3131980352          0.5548
C677       C    0.5000000000    1.0000000000    0.3526930952          -0.431
N678       N    0.5046781044    0.9600925895    0.3379751963          -0.428
N679       N    0.5162633427    0.9629557734    0.2967971817         -0.4208
H680       H    0.5146588725    0.9357121771    0.2860595130         -0.4227
H681       H    0.4783717414    0.9472070003    0.3370551609          0.5508
H682       H    0.5014814074    1.0457679767    0.3082042835         -0.4321
H683       H    0.5289355436    1.0111148020    0.3579189865         -0.4074
H684       H    0.4547195302    1.0281175004    0.3160758921          0.5307
H685       H    0.4615950078    0.9747047794    0.2786918790          0.5342
N686       N    0.5295522158    1.0788380015    0.2439167455         -0.4129
H687       H    0.5234365996    0.9177011543    0.1246769832         -0.4241
H688       H    0.4872563952    0.8820089518    0.1311660595          0.5472
H689       H    0.5145722137    0.8982301604    0.1714599669         -0.4288
O690       O    0.4727563042    0.9364245049    0.1511211226          0.5365
H691       H    0.5140475783    1.1100131211    0.1221989358         -0.4317
H692       H    0.4766750975    1.0750281309    0.1239788083          0.5383
H693       H    0.4868310835    1.1038365984    0.1653562335          0.5486
O694       O    0.5272204309    1.0610965948    0.1536074862         -0.4195
C635       C    0.8526930952    0.5000000000    0.5000000000          0.5583
C636       C    0.8320243664    0.4664222530    0.4995889501          0.5483
C637       C    0.7928891800    0.4650731123    0.4978377480          0.5486
C638       C    0.7688258242    0.4954609025    0.4967108733          0.5588
C639       C    0.7892839137    0.5289861115    0.4979483353         -0.4306
C640       C    0.8290748675    0.5314119391    0.4993403217         -0.4309
C641       C    0.7221608998    0.4863878513    0.4941066469          0.5564
H642       H    0.7797269562    0.4366489282    0.4972896347          0.5398
C643       C    0.8557255977    0.4151348312    0.5384004906          0.5592
C644       C    0.8594345234    0.5815260831    0.4638711074          0.5574
C645       C    0.7700073468    0.5543804705    0.4976355698         -0.4217
C646       C    0.6868019648    0.5120292927    0.4782490718          0.5548
C647       C    0.6473069048    0.5000000000    0.5000000000          -0.431
N648       N    0.6620248037    0.4652657200    0.5201994026          -0.428
N649       N    0.7032028183    0.4725100127    0.5296828510         -0.4208
H650       H    0.7139404870    0.4468852053    0.5390720526         -0.4227
H651       H    0.6629448391    0.4429612690    0.5012106004          0.5508
H652       H    0.6917957165    0.5425645140    0.4831131882         -0.4321
H653       H    0.6420810135    0.5217285802    0.5221059565         -0.4074
H654       H    0.6839241079    0.5077355748    0.4472640952          0.5307
H655       H    0.7213081210    0.4614915168    0.4748626107          0.5342
N656       N    0.7560832545    0.5840835687    0.4956736386         -0.4129
H657       H    0.8753230168    0.4338664845    0.5543022315         -0.4241
H658       H    0.8688339405    0.3867098100    0.5353499612          0.5472
H659       H    0.8285400331    0.4124757873    0.5539347926         -0.4288
O660       O    0.8488788774    0.4308340143    0.5003591103          0.5365
H661       H    0.8778010642    0.6064934382    0.4690263194         -0.4317
H662       H    0.8760211917    0.5595100489    0.4486986785          0.5383
H663       H    0.8346437665    0.5899790682    0.4465282616          0.5486
O664       O    0.8463925138    0.5668833041    0.5006077676         -0.4195
C605       C    1.1473069048    0.5000000000    0.5000000000          0.5583
C606       C    1.1679756336    0.5198178083    0.4728911724          0.5483
C607       C    1.2071108200    0.5192263310    0.4707611386          0.5486
C608       C    1.2311741758    0.5000921571    0.4943952460          0.5588
C609       C    1.2107160863    0.4809670013    0.5219578904         -0.4306
C610       C    1.1709251325    0.4806250939    0.5247337443         -0.4309
C611       C    1.2778391002    0.5034526067    0.4855742692          0.5564
H612       H    1.2202730438    0.5358423509    0.4476929234          0.5398
C613       C    1.1442744023    0.5816394938    0.4551481593          0.5592
C614       C    1.1405654766    0.4221812361    0.5435435309          0.5574
C615       C    1.2299926532    0.4654801735    0.5420857182         -0.4217
C616       C    1.3131980352    0.4753816818    0.4965728772          0.5548
C617       C    1.3526930952    0.5000000000    0.5000000000          -0.431
N618       N    1.3379751963    0.5370000901    0.4843322175          -0.428
N619       N    1.2967971817    0.5402402731    0.4958177208         -0.4208
H620       H    1.2860595130    0.5631265189    0.4809513958         -0.4227
H621       H    1.3370551609    0.5351917189    0.4550953754          0.5508
H622       H    1.3082042835    0.4609518422    0.5239195241         -0.4321
H623       H    1.3579189865    0.5046476171    0.5306464380         -0.4074
H624       H    1.3160758921    0.4531699313    0.4745469170          0.5307
H625       H    1.2786918790    0.5029951785    0.4541107799          0.5342
N626       N    1.2439167455    0.4460887696    0.5646710381         -0.4129
H627       H    1.1246769832    0.5831218944    0.4796745265         -0.4241
H628       H    1.1311660595    0.5962540830    0.4305778247          0.5472
H629       H    1.1714599669    0.5956623617    0.4623415054         -0.4288
O630       O    1.1511211226    0.5417868796    0.4448826777          0.5365
H631       H    1.1221989358    0.4113249926    0.5666105422         -0.4317
H632       H    1.1239788083    0.4232529135    0.5168272462          0.5383
H633       H    1.1653562335    0.4032351684    0.5399002115          0.5486
O634       O    1.1536074862    0.4603562316    0.5538713038         -0.4195
C575       C    0.8526930952    0.5000000000    0.0000000000          0.5583
C576       C    0.8320243664    0.4664361264   -0.0010490201          0.5483
C577       C    0.7928891800    0.4651205056   -0.0028255424          0.5486
C578       C    0.7688258242    0.4955242221   -0.0033747848          0.5588
C579       C    0.7892839137    0.5290198637   -0.0015005001         -0.4306
C580       C    0.8290748675    0.5314188028   -0.0000626694         -0.4309
C581       C    0.7221608998    0.4865022946   -0.0061509471          0.5564
H582       H    0.7797269562    0.4367118689   -0.0039136731          0.5398
C583       C    0.8557255977    0.4144204677    0.0367809490          0.5592
C584       C    0.8594345234    0.5821978845   -0.0345732105          0.5574
C585       C    0.7700073468    0.5544155808   -0.0013306655         -0.4217
C586       C    0.6868019648    0.5124404319   -0.0215184203          0.5548
C587       C    0.6473069048    0.5000000000    0.0000000000          -0.431
N588       N    0.6620248037    0.4648881623    0.0195357346          -0.428
N589       N    0.7032028183    0.4719509426    0.0291551268         -0.4208
H590       H    0.7139404870    0.4461523482    0.0380557105         -0.4227
H591       H    0.6629448391    0.4429485637    0.0001265317          0.5508
H592       H    0.6917957165    0.5428777120   -0.0160749518         -0.4321
H593       H    0.6420810135    0.5213045996    0.0225148517         -0.4074
H594       H    0.6839241079    0.5087362659   -0.0525793917          0.5307
H595       H    0.7213081210    0.4619761304   -0.0258645889          0.5342
N596       N    0.7560832545    0.5841505966   -0.0027278241         -0.4129
H597       H    0.8753230168    0.4328465741    0.0530357577         -0.4241
H598       H    0.8688339405    0.3860585450    0.0331908382          0.5472
H599       H    0.8285400331    0.4114667211    0.0522619192         -0.4288
O600       O    0.8488788774    0.4308396787   -0.0009552467          0.5365
H601       H    0.8778010642    0.6070627723   -0.0289444996         -0.4317
H602       H    0.8760211917    0.5604741319   -0.0501612488          0.5383
H603       H    0.8346437665    0.5909788922   -0.0517523014          0.5486
O604       O    0.8463925138    0.5668596792    0.0018785746         -0.4195
C545       C    1.1473069048    0.5000000000    0.0000000000          0.5583
C546       C    1.1679756336    0.4750047558   -0.0224248038          0.5483
C547       C    1.2071108200    0.4728263196   -0.0220488982          0.5486
C548       C    1.2311741758    0.4944324372   -0.0006511572          0.5588
C549       C    1.2107160863    0.5199483716    0.0211297530         -0.4306
C550       C    1.1709251325    0.5226762330    0.0217470354         -0.4309
C551       C    1.2778391002    0.4859909521   -0.0048753236          0.5564
H552       H    1.2202730438    0.4515319084   -0.0408845750          0.5398
C553       C    1.1442744023    0.4635213300   -0.0857088163          0.5592
C554       C    1.1405654766    0.5355582754    0.0817765746          0.5574
C555       C    1.2299926532    0.5384297955    0.0385483712         -0.4217
C556       C    1.3131980352    0.4941326203    0.0241532734          0.5548
C557       C    1.3526930952    0.5000000000    0.0000000000          -0.431
N558       N    1.3379751963    0.4881037763   -0.0383792384          -0.428
N559       N    1.2967971817    0.4998553481   -0.0404567685         -0.4208
H560       H    1.2860595130    0.4873477509   -0.0647126518         -0.4227
H561       H    1.3370551609    0.4588324444   -0.0394982881          0.5508
H562       H    1.3082042835    0.5199023171    0.0412407569         -0.4321
H563       H    1.3579189865    0.5309572981   -0.0015653116         -0.4074
H564       H    1.3160758921    0.4699995137    0.0440554832          0.5307
H565       H    1.2786918790    0.4546389434   -0.0075608305          0.5342
N566       N    1.2439167455    0.5589666873    0.0600973687         -0.4129
H567       H    1.1246769832    0.4880731749   -0.0847356186         -0.4241
H568       H    1.1311660595    0.4405325211   -0.1027029983          0.5472
H569       H    1.1714599669    0.4720784970   -0.0989436170         -0.4288
O570       O    1.1511211226    0.4493290744   -0.0470799302          0.5365
H571       H    1.1221989358    0.5574264231    0.0948811214         -0.4317
H572       H    1.1239788083    0.5090823955    0.0780434597          0.5383
H573       H    1.1653562335    0.5300419766    0.1002643464          0.5486
O574       O    1.1536074862    0.5496450532    0.0448231462         -0.4195
C515       C    1.0000000000    0.5000000000   -0.1473069048          0.5583
C516       C    1.0137627521    0.4693696113   -0.1679756336          0.5483
C517       C    1.0159066202    0.4688304274   -0.2071108200          0.5486
C518       C    1.0048259804    0.4971483911   -0.2311741758          0.5588
C519       C    0.9903262675    0.5274011476   -0.2107160863         -0.4306
C520       C    0.9880826158    0.5290709658   -0.1709251325         -0.4309
C521       C    1.0108312984    0.4898656437   -0.2778391002          0.5564
H522       H    1.0277406043    0.4429810273   -0.2202730438          0.5398
C523       C    0.9986143135    0.4068615309   -0.1442744023          0.5592
C524       C    1.0006335244    0.5891706104   -0.1405654766          0.5574
C525       C    0.9804896384    0.5508150754   -0.2299926532         -0.4217
C526       C    1.0151523619    0.5197031137   -0.3131980352          0.5548
C527       C    1.0000000000    0.5000000000   -0.3526930952          -0.431
N528       N    0.9953218956    0.4600925895   -0.3379751963          -0.428
N529       N    0.9837366573    0.4629557734   -0.2967971817         -0.4208
H530       H    0.9853411275    0.4357121771   -0.2860595130         -0.4227
H531       H    1.0216282586    0.4472070003   -0.3370551609          0.5508
H532       H    0.9985185926    0.5457679767   -0.3082042835         -0.4321
H533       H    0.9710644564    0.5111148020   -0.3579189865         -0.4074
H534       H    1.0452804698    0.5281175004   -0.3160758921          0.5307
H535       H    1.0384049922    0.4747047794   -0.2786918790          0.5342
N536       N    0.9704477842    0.5788380015   -0.2439167455         -0.4129
H537       H    0.9765634004    0.4177011543   -0.1246769832         -0.4241
H538       H    1.0127436048    0.3820089518   -0.1311660595          0.5472
H539       H    0.9854277863    0.3982301604   -0.1714599669         -0.4288
O540       O    1.0272436958    0.4364245049   -0.1511211226          0.5365
H541       H    0.9859524217    0.6100131211   -0.1221989358         -0.4317
H542       H    1.0233249025    0.5750281309   -0.1239788083          0.5383
H543       H    1.0131689165    0.6038365984   -0.1653562335          0.5486
O544       O    0.9727795691    0.5610965948   -0.1536074862         -0.4195
C485       C    1.0000000000    0.5000000000    0.3526930952          0.5583
C486       C    1.0308018468    0.5133746137    0.3320243664          0.5483
C487       C    1.0313680771    0.5155114976    0.2928891800          0.5486
C488       C    1.0029123614    0.5047895628    0.2688258242          0.5588
C489       C    0.9724788045    0.4906732754    0.2892839137         -0.4306
C490       C    0.9707807694    0.4884509023    0.3290748675         -0.4309
C491       C    1.0102704094    0.5107023779    0.2221608998          0.5564
H492       H    1.0573649455    0.5270179089    0.2797269562          0.5398
C493       C    1.0931135241    0.4974375444    0.3557255977          0.5592
C494       C    0.9108445137    0.5017602165    0.3594345234          0.5574
C495       C    0.9489424522    0.4811332855    0.2700073468         -0.4217
C496       C    0.9804899217    0.5154001170    0.1868019648          0.5548
C497       C    1.0000000000    0.5000000000    0.1473069048          -0.431
N498       N    1.0398451129    0.4948180068    0.1620248037          -0.428
N499       N    1.0368357687    0.4832698720    0.2032028183         -0.4208
H500       H    1.0640974638    0.4845299693    0.2139404870         -0.4227
H501       H    1.0530620755    0.5209594498    0.1629448391          0.5508
H502       H    0.9542169584    0.4990970262    0.1917957165         -0.4321
H503       H    0.9885204614    0.4712072109    0.1420810135         -0.4074
H504       H    0.9724568996    0.5456321421    0.1839241079          0.5307
H505       H    1.0257784792    0.5380823007    0.2213081210          0.5342
N506       N    0.9207948765    0.4714463253    0.2560832545         -0.4129
H507       H    1.0819961351    0.4755253592    0.3753230168         -0.4241
H508       H    1.1181426541    0.5112516753    0.3688339405          0.5472
H509       H    1.1015775831    0.4841430057    0.3285400331         -0.4288
O510       O    1.0639146656    0.5264381931    0.3488788774          0.5365
H511       H    0.8898181593    0.4873436477    0.3778010642         -0.4317
H512       H    0.9252725879    0.5242710813    0.3760211917          0.5383
H513       H    0.8963380913    0.5144799243    0.3346437665          0.5486
O514       O    0.9385643308    0.4735537470    0.3463925138         -0.4195
C455       C    1.0000000000   -0.1473069048    0.5000000000          0.5583
C456       C    1.0308018468   -0.1679756336    0.4866253863          0.5483
C457       C    1.0313680771   -0.2071108200    0.4844885024          0.5486
C458       C    1.0029123614   -0.2311741758    0.4952104372          0.5588
C459       C    0.9724788045   -0.2107160863    0.5093267246         -0.4306
C460       C    0.9707807694   -0.1709251325    0.5115490977         -0.4309
C461       C    1.0102704094   -0.2778391002    0.4892976221          0.5564
H462       H    1.0573649455   -0.2202730438    0.4729820911          0.5398
C463       C    1.0931135241   -0.1442744023    0.5025624556          0.5592
C464       C    0.9108445137   -0.1405654766    0.4982397835          0.5574
C465       C    0.9489424522   -0.2299926532    0.5188667145         -0.4217
C466       C    0.9804899217   -0.3131980352    0.4845998830          0.5548
C467       C    1.0000000000   -0.3526930952    0.5000000000          -0.431
N468       N    1.0398451129   -0.3379751963    0.5051819932          -0.428
N469       N    1.0368357687   -0.2967971817    0.5167301280         -0.4208
H470       H    1.0640974638   -0.2860595130    0.5154700307         -0.4227
H471       H    1.0530620755   -0.3370551609    0.4790405502          0.5508
H472       H    0.9542169584   -0.3082042835    0.5009029738         -0.4321
H473       H    0.9885204614   -0.3579189865    0.5287927891         -0.4074
H474       H    0.9724568996   -0.3160758921    0.4543678579          0.5307
H475       H    1.0257784792   -0.2786918790    0.4619176993          0.5342
N476       N    0.9207948765   -0.2439167455    0.5285536747         -0.4129
H477       H    1.0819961351   -0.1246769832    0.5244746408         -0.4241
H478       H    1.1181426541   -0.1311660595    0.4887483247          0.5472
H479       H    1.1015775831   -0.1714599669    0.5158569943         -0.4288
O480       O    1.0639146656   -0.1511211226    0.4735618069          0.5365
H481       H    0.8898181593   -0.1221989358    0.5126563523         -0.4317
H482       H    0.9252725879   -0.1239788083    0.4757289187          0.5383
H483       H    0.8963380913   -0.1653562335    0.4855200757          0.5486
O484       O    0.9385643308   -0.1536074862    0.5264462530         -0.4195
C425       C    1.0000000000    0.1473069048    0.5000000000          0.5583
C426       C    0.9691981532    0.1679756336    0.4866253863          0.5483
C427       C    0.9686319229    0.2071108200    0.4844885024          0.5486
C428       C    0.9970876386    0.2311741758    0.4952104372          0.5588
C429       C    1.0275211955    0.2107160863    0.5093267246         -0.4306
C430       C    1.0292192306    0.1709251325    0.5115490977         -0.4309
C431       C    0.9897295906    0.2778391002    0.4892976221          0.5564
H432       H    0.9426350545    0.2202730438    0.4729820911          0.5398
C433       C    0.9068864759    0.1442744023    0.5025624556          0.5592
C434       C    1.0891554863    0.1405654766    0.4982397835          0.5574
C435       C    1.0510575478    0.2299926532    0.5188667145         -0.4217
C436       C    1.0195100783    0.3131980352    0.4845998830          0.5548
C437       C    1.0000000000    0.3526930952    0.5000000000          -0.431
N438       N    0.9601548871    0.3379751963    0.5051819932          -0.428
N439       N    0.9631642313    0.2967971817    0.5167301280         -0.4208
H440       H    0.9359025362    0.2860595130    0.5154700307         -0.4227
H441       H    0.9469379245    0.3370551609    0.4790405502          0.5508
H442       H    1.0457830416    0.3082042835    0.5009029738         -0.4321
H443       H    1.0114795386    0.3579189865    0.5287927891         -0.4074
H444       H    1.0275431004    0.3160758921    0.4543678579          0.5307
H445       H    0.9742215208    0.2786918790    0.4619176993          0.5342
N446       N    1.0792051235    0.2439167455    0.5285536747         -0.4129
H447       H    0.9180038649    0.1246769832    0.5244746408         -0.4241
H448       H    0.8818573459    0.1311660595    0.4887483247          0.5472
H449       H    0.8984224169    0.1714599669    0.5158569943         -0.4288
O450       O    0.9360853344    0.1511211226    0.4735618069          0.5365
H451       H    1.1101818407    0.1221989358    0.5126563523         -0.4317
H452       H    1.0747274121    0.1239788083    0.4757289187          0.5383
H453       H    1.1036619087    0.1653562335    0.4855200757          0.5486
O454       O    1.0614356692    0.1536074862    0.5264462530         -0.4195
C395       C    0.6473069048   -0.0000000000    0.5000000000          0.5583
C396       C    0.6679756336    0.0079494633    0.4673742419          0.5483
C397       C    0.7071108200    0.0065886441    0.4656320995          0.5486
C398       C    0.7311741758   -0.0020574201    0.4947857136          0.5588
C399       C    0.7107160863   -0.0091933554    0.5275660336         -0.4306
C400       C    0.6709251325   -0.0084481444    0.5302617573         -0.4309
C401       C    0.7778391002   -0.0023242771    0.4853500874          0.5564
H402       H    0.7202730438    0.0131241438    0.4379640328          0.5398
C403       C    0.6442744023    0.0582928385    0.4273457535          0.5592
C404       C    0.6405654766   -0.0552624430    0.5699847233          0.5574
C405       C    0.7299926532   -0.0158094757    0.5520853778         -0.4217
C406       C    0.8131980352   -0.0240586015    0.5062442337          0.5548
C407       C    0.8526930952   -0.0000000000    0.5000000000          -0.431
N408       N    0.8379751963    0.0282003681    0.4713778876          -0.428
N409       N    0.7967971817    0.0355851121    0.4807523810         -0.4208
H410       H    0.7860595130    0.0510500032    0.4582662741         -0.4227
H411       H    0.8370551609    0.0153527284    0.4450529699          0.5508
H412       H    0.8082042835   -0.0269384147    0.5370300428         -0.4321
H413       H    0.8579189865    0.0160100950    0.5265420679         -0.4074
H414       H    0.8160758921   -0.0530033590    0.4943822861          0.5307
H415       H    0.7786918790   -0.0147747816    0.4564512062          0.5342
N416       N    0.7439167455   -0.0250941616    0.5803681964         -0.4129
H417       H    0.6246769832    0.0690385523    0.4494425822         -0.4241
H418       H    0.6311660595    0.0624046939    0.3990547619          0.5472
H419       H    0.6714599669    0.0740004916    0.4286321017         -0.4288
O420       O    0.6511211226    0.0175428716    0.4330947671          0.5365
H421       H    0.6221989358   -0.0564760983    0.5954498381         -0.4317
H422       H    0.6239788083   -0.0644852270    0.5448879382          0.5383
H423       H    0.6653562335   -0.0741622652    0.5738608011          0.5486
O424       O    0.6536074862   -0.0160388620    0.5649345875         -0.4195
C365       C    1.3526930952   -0.0000000000    0.5000000000          0.5583
C366       C    1.3320243664   -0.0332739642    0.5045251924          0.5483
C367       C    1.2928891800   -0.0348656837    0.5029911396          0.5486
C368       C    1.2688258242   -0.0049729658    0.4974132315          0.5588
C369       C    1.2892839137    0.0283704107    0.4937132052         -0.4306
C370       C    1.3290748675    0.0309743799    0.4947337980         -0.4309
C371       C    1.2221608998   -0.0143301181    0.4961698671          0.5564
H372       H    1.2797269562   -0.0630621077    0.5066238175          0.5398
C373       C    1.3557255977   -0.0783046589    0.5504487358          0.5592
C374       C    1.3594345234    0.0753354307    0.4522886597          0.5574
C375       C    1.2700073468    0.0534434255    0.4896739952         -0.4217
C376       C    1.1868019648    0.0087041311    0.4767181431          0.5548
C377       C    1.1473069048   -0.0000000000    0.5000000000          -0.431
N378       N    1.1620248037   -0.0313907617    0.5250819886          -0.428
N379       N    1.2032028183   -0.0228321382    0.5333985705         -0.4208
H380       H    1.2139404870   -0.0467999863    0.5464496285         -0.4227
H381       H    1.1629448391   -0.0562423273    0.5095751246          0.5508
H382       H    1.1917957165    0.0396226174    0.4770445986         -0.4321
H383       H    1.1420810135    0.0247397771    0.5186747941         -0.4074
H384       H    1.1839241079   -0.0000939878    0.4466998505          0.5307
H385       H    1.2213081210   -0.0417829456    0.4807912241          0.5342
N386       N    1.2560832545    0.0825362267    0.4833706522         -0.4129
H387       H    1.3753230168   -0.0574405603    0.5634267785         -0.4241
H388       H    1.3688339405   -0.1068694572    0.5516062597          0.5472
H389       H    1.3285400331   -0.0786532399    0.5662051170         -0.4288
O390       O    1.3488788774   -0.0683631237    0.5105140787          0.5365
H391       H    1.3778010642    0.1007891904    0.4537208430         -0.4317
H392       H    1.3760211917    0.0513296897    0.4405144181          0.5383
H393       H    1.3346437665    0.0811494839    0.4338923546          0.5486
O394       O    1.3463925138    0.0662472099    0.4907775857         -0.4195
C335       C   -0.0000000000   -0.1473069048    0.0000000000          0.5583
C336       C    0.0115633008   -0.1679756336    0.0315265623          0.5483
C337       C    0.0136636960   -0.2071108200    0.0322159313          0.5486
C338       C    0.0046123515   -0.2311741758    0.0031855885          0.5588
C339       C   -0.0077127588   -0.2107160863   -0.0280163763         -0.4306
C340       C   -0.0098327721   -0.1709251325   -0.0298406047         -0.4309
C341       C    0.0100878875   -0.2778391002    0.0108745910          0.5564
H342       H    0.0236409847   -0.2202730438    0.0588371330          0.5398
C343       C   -0.0079654697   -0.1442744023    0.0928075743          0.5592
C344       C    0.0069347312   -0.1405654766   -0.0889028043          0.5574
C345       C   -0.0158698330   -0.2299926532   -0.0520670193         -0.4217
C346       C    0.0165071270   -0.3131980352   -0.0185828286          0.5548
C347       C   -0.0000000000   -0.3526930952    0.0000000000          -0.431
N348       N   -0.0074871547   -0.3379751963    0.0394769374          -0.428
N349       N   -0.0188410403   -0.2967971817    0.0358020424         -0.4208
H350       H   -0.0191662253   -0.2860595130    0.0630909068         -0.4227
H351       H    0.0178426285   -0.3370551609    0.0541896946          0.5508
H352       H    0.0017572875   -0.3082042835   -0.0457582146         -0.4321
H353       H   -0.0280775514   -0.3579189865   -0.0131322357         -0.4074
H354       H    0.0471546295   -0.3160758921   -0.0248466434          0.5307
H355       H    0.0365210100   -0.2786918790    0.0279465104          0.5342
N356       N   -0.0239058441   -0.2439167455   -0.0807296386         -0.4129
H357       H   -0.0291950602   -0.1246769832    0.0804364511         -0.4241
H358       H    0.0043718429   -0.1311660595    0.1185966859          0.5472
H359       H   -0.0217291015   -0.1714599669    0.1004853015         -0.4288
O360       O    0.0226818883   -0.1511211226    0.0653421340          0.5365
H361       H   -0.0062364540   -0.1221989358   -0.1107308806         -0.4317
H362       H    0.0285697311   -0.1239788083   -0.0731918163          0.5383
H363       H    0.0204753976   -0.1653562335   -0.1026460794          0.5486
O364       O   -0.0228338962   -0.1536074862   -0.0628677893         -0.4195
C305       C    0.0000000000    0.3526930952    0.0000000000          0.5583
C306       C   -0.0256102216    0.3320243664    0.0217198206          0.5483
C307       C   -0.0255335080    0.2928891800    0.0239291201          0.5486
C308       C   -0.0014009004    0.2688258242    0.0054276366          0.5588
C309       C    0.0236420688    0.2892839137   -0.0168954601         -0.4306
C310       C    0.0246239320    0.3290748675   -0.0195142786         -0.4309
C311       C   -0.0067318589    0.2221608998    0.0132175746          0.5564
H312       H   -0.0470854538    0.2797269562    0.0424695706          0.5398
C313       C   -0.0898672837    0.3557255977    0.0245064455          0.5592
C314       C    0.0858465006    0.3594345234   -0.0241283536          0.5574
C315       C    0.0434082228    0.2700073468   -0.0328413199         -0.4217
C316       C    0.0231332358    0.1868019648    0.0090917633          0.5548
C317       C    0.0000000000    0.1473069048    0.0000000000          -0.431
N318       N   -0.0396388477    0.1620248037    0.0065763081          -0.428
N319       N   -0.0401019270    0.2032028183   -0.0053485034         -0.4208
H320       H   -0.0658311398    0.2139404870    0.0037506983         -0.4227
H321       H   -0.0447209851    0.1629448391    0.0354247919          0.5508
H322       H    0.0435606690    0.1917957165   -0.0141198575         -0.4321
H323       H    0.0026514851    0.1420810135   -0.0308832339         -0.4074
H324       H    0.0395752702    0.1839241079    0.0357031198          0.5307
H325       H   -0.0136483961    0.2213081210    0.0439148369          0.5342
N326       N    0.0675455444    0.2560832545   -0.0502629423         -0.4129
H327       H   -0.0855702964    0.3753230168    0.0003139652         -0.4241
H328       H   -0.1098247865    0.3688339405    0.0449755843          0.5472
H329       H   -0.1018179847    0.3285400331    0.0142319236         -0.4288
O330       O   -0.0535224877    0.3488788774    0.0438110243          0.5365
H331       H    0.1017982470    0.3778010642   -0.0440152040         -0.4317
H332       H    0.0785539638    0.3760211917    0.0015957065          0.5383
H333       H    0.1034143335    0.3346437665   -0.0161534868          0.5486
O334       O    0.0511473357    0.3463925138   -0.0431009954         -0.4195
C275       C   -0.1473069048   -0.0000000000    0.0000000000          0.5583
C276       C   -0.1679756336    0.0277064531   -0.0189733106          0.5483
C277       C   -0.2071108200    0.0298172554   -0.0183164980          0.5486
C278       C   -0.2311741758    0.0056049330    0.0000805421          0.5588
C279       C   -0.2107160863   -0.0225337843    0.0183475490         -0.4306
C280       C   -0.1709251325   -0.0253188534    0.0186037835         -0.4309
C281       C   -0.2778391002    0.0145252426   -0.0030065809          0.5564
H282       H   -0.2202730438    0.0533863821   -0.0342140115          0.5398
C283       C   -0.1442744023    0.0473454736   -0.0802190793          0.5592
C284       C   -0.1405654766   -0.0459200865    0.0764404655          0.5574
C285       C   -0.2299926532   -0.0431291341    0.0332069856         -0.4217
C286       C   -0.3131980352    0.0026671246    0.0247122076          0.5548
C287       C   -0.3526930952   -0.0000000000    0.0000000000          -0.431
N288       N   -0.3379751963    0.0168001411   -0.0364998813          -0.428
N289       N   -0.2967971817    0.0054199032   -0.0400923396         -0.4208
H290       H   -0.2860595130    0.0209841876   -0.0625097639         -0.4227
H291       H   -0.3370551609    0.0459674004   -0.0337917222          0.5508
H292       H   -0.3082042835   -0.0251110576    0.0382927806         -0.4321
H293       H   -0.3579189865   -0.0304887228   -0.0055894803         -0.4074
H294       H   -0.3160758921    0.0239983945    0.0475919303          0.5307
H295       H   -0.2786918790    0.0459597085   -0.0015801313          0.5342
N296       N   -0.2439167455   -0.0663010909    0.0518934416         -0.4129
H297       H   -0.1246769832    0.0228764120   -0.0824563156         -0.4241
H298       H   -0.1311660595    0.0723543523   -0.0940698390          0.5472
H299       H   -0.1714599669    0.0405875183   -0.0944568845         -0.4288
O300       O   -0.1511211226    0.0563784164   -0.0400691489          0.5365
H301       H   -0.1221989358   -0.0693105789    0.0865809732         -0.4317
H302       H   -0.1239788083   -0.0191834678    0.0761922966          0.5383
H303       H   -0.1653562335   -0.0428621332    0.0954897746          0.5486
O304       O   -0.1536074862   -0.0550669703    0.0379654386         -0.4195
C245       C    0.3526930952   -0.0000000000    0.0000000000          0.5583
C246       C    0.3320243664    0.0193100017   -0.0274728574          0.5483
C247       C    0.2928891800    0.0215171645   -0.0275966384          0.5486
C248       C    0.2688258242    0.0052783789   -0.0018869227          0.5588
C249       C    0.2892839137   -0.0146838148    0.0250756769         -0.4306
C250       C    0.3290748675   -0.0172028971    0.0262907860         -0.4309
C251       C    0.2221608998    0.0125532495   -0.0079017801          0.5564
H252       H    0.2797269562    0.0380285841   -0.0507398381          0.5398
C253       C    0.3557255977    0.0162629923   -0.0917180988          0.5592
C254       C    0.3594345234   -0.0162507688    0.0876795964          0.5574
C255       C    0.2700073468   -0.0287731223    0.0462053410         -0.4217
C256       C    0.1868019648    0.0111504107    0.0222142995          0.5548
C257       C    0.1473069048   -0.0000000000    0.0000000000          -0.431
N258       N    0.1620248037    0.0029576805   -0.0400716633          -0.428
N259       N    0.2032028183   -0.0089600388   -0.0394523605         -0.4208
H260       H    0.2139404870   -0.0022295248   -0.0659001967         -0.4227
H261       H    0.1629448391    0.0312270215   -0.0477467854          0.5508
H262       H    0.1917957165   -0.0101148545    0.0446608551         -0.4321
H263       H    0.1420810135   -0.0305159568    0.0054388315         -0.4074
H264       H    0.1839241079    0.0391420779    0.0361775138          0.5307
H265       H    0.2213081210    0.0424975540   -0.0175712697          0.5342
N266       N    0.2560832545   -0.0439360615    0.0718219078         -0.4129
H267       H    0.3753230168   -0.0074406373   -0.0852467661         -0.4241
H268       H    0.3688339405    0.0348396354   -0.1134481676          0.5472
H269       H    0.3285400331    0.0049479095   -0.1026886939         -0.4288
O270       O    0.3488788774    0.0387812764   -0.0572719402          0.5365
H271       H    0.3778010642   -0.0346104702    0.1053676261         -0.4317
H272       H    0.3760211917    0.0087067216    0.0780862632          0.5383
H273       H    0.3346437665   -0.0067169276    0.1044525845          0.5486
O274       O    0.3463925138   -0.0382893747    0.0548422240         -0.4195
C215       C    0.0000000000    0.0000000000   -0.3526930952          0.5583
C216       C    0.0165904952   -0.0291957107   -0.3320243664          0.5483
C217       C    0.0157595091   -0.0312442105   -0.2928891800          0.5486
C218       C   -0.0005488589   -0.0055785764   -0.2688258242          0.5588
C219       C   -0.0163993839    0.0239888349   -0.2892839137         -0.4306
C220       C   -0.0164218764    0.0267855758   -0.3290748675         -0.4309
C221       C    0.0017816763   -0.0147257540   -0.2221608998          0.5564
H222       H    0.0296308755   -0.0560599286   -0.2797269562          0.5398
C223       C    0.0759799279   -0.0538864094   -0.3557255977          0.5592
C224       C   -0.0723337121    0.0521501026   -0.3594345234          0.5574
C225       C   -0.0294849294    0.0457543991   -0.2700073468         -0.4217
C226       C   -0.0248486743   -0.0005917302   -0.1868019648          0.5548
C227       C    0.0000000000    0.0000000000   -0.1473069048          -0.431
N228       N    0.0349675243   -0.0197928855   -0.1620248037          -0.428
N229       N    0.0394988468   -0.0087528363   -0.2032028183         -0.4208
H230       H    0.0605365403   -0.0261368322   -0.2139404870         -0.4227
H231       H    0.0298303265   -0.0486316154   -0.1629448391          0.5508
H232       H   -0.0360593150    0.0282246003   -0.1917957165         -0.4321
H233       H    0.0081189122    0.0299146749   -0.1420810135         -0.4074
H234       H   -0.0494316895   -0.0199354669   -0.1839241079          0.5307
H235       H   -0.0022678485   -0.0459309098   -0.2213081210          0.5342
N236       N   -0.0461686796    0.0704075064   -0.2560832545         -0.4129
H237       H    0.0802550602   -0.0296900575   -0.3753230168         -0.4241
H238       H    0.0876913362   -0.0799657206   -0.3688339405          0.5472
H239       H    0.0907328833   -0.0483424612   -0.3285400331         -0.4288
O240       O    0.0352153660   -0.0595310048   -0.3488788774          0.5365
H241       H   -0.0804831627    0.0763064990   -0.3778010642         -0.4317
H242       H   -0.0743217191    0.0254863408   -0.3760211917          0.5383
H243       H   -0.0915719888    0.0506954671   -0.3346437665          0.5486
O244       O   -0.0332286638    0.0580482700   -0.3463925138         -0.4195
C185       C   -0.0000000000   -0.0000000000    0.1473069048          0.5583
C186       C    0.0138188170    0.0306051361    0.1679756336          0.5483
C187       C    0.0159636688    0.0311403933    0.2071108200          0.5486
C188       C    0.0048311940    0.0028427672    0.2311741758          0.5588
C189       C   -0.0097238911   -0.0273833879    0.2107160863         -0.4306
C190       C   -0.0119705967   -0.0290490948    0.1709251325         -0.4309
C191       C    0.0108498375    0.0101145059    0.2778391002          0.5564
H192       H    0.0278449665    0.0569680807    0.2202730438          0.5398
C193       C   -0.0012151362    0.0931408503    0.1442744023          0.5592
C194       C    0.0004702411   -0.0891716209    0.1405654766          0.5574
C195       C   -0.0196033775   -0.0507792644    0.2299926532         -0.4217
C196       C    0.0151162577   -0.0197308265    0.3131980352          0.5548
C197       C   -0.0000000000    0.0000000000    0.3526930952          -0.431
N198       N   -0.0046050212    0.0399159098    0.3379751963          -0.428
N199       N   -0.0161954830    0.0370739447    0.2967971817         -0.4208
H200       H   -0.0145411290    0.0643145573    0.2860595130         -0.4227
H201       H    0.0217248928    0.0527533072    0.3370551609          0.5508
H202       H   -0.0015652117   -0.0457651874    0.3082042835         -0.4321
H203       H   -0.0289558477   -0.0110617989    0.3579189865         -0.4074
H204       H    0.0452289073   -0.0282003673    0.3160758921          0.5307
H205       H    0.0384512465    0.0252248540    0.2786918790          0.5342
N206       N   -0.0296965283   -0.0787837556    0.2439167455         -0.4129
H207       H   -0.0232858610    0.0823416230    0.1246769832         -0.4241
H208       H    0.0129596395    0.1179675153    0.1311660595          0.5472
H209       H   -0.0143858362    0.1017963525    0.1714599669         -0.4288
O210       O    0.0273600646    0.0635255019    0.1511211226          0.5365
H211       H   -0.0142490023   -0.1099872138    0.1221989358         -0.4317
H212       H    0.0231874777   -0.0750707159    0.1239788083          0.5383
H213       H    0.0129787569   -0.1038605382    0.1653562335          0.5486
O214       O   -0.0273322606   -0.0610466484    0.1536074862         -0.4195
loop_
_geom_bond_atom_site_label_1
_geom_bond_atom_site_label_2
_geom_bond_distance
_geom_bond_site_symmetry_2
_ccdc_geom_bond_type
Zn1          O5 1.942       .   S
Zn1          O6 1.922       .   S
Zn1         O10 1.922       .   S
Zn1         O17 1.922       .   S
Zn2          O5 1.942       .   S
Zn2          O7 1.922       .   S
Zn2          O9 1.922       .   S
Zn2         O13 1.922       .   S
Zn3          O5 1.942       .   S
Zn3          O8 1.922       .   S
Zn3         O11 1.922       .   S
Zn3         O14 1.922       .   S
Zn4          O5 1.942       .   S
Zn4         O12 1.922       .   S
Zn4         O15 1.922       .   S
Zn4         O16 1.922       .   S
O6          C18 1.304       .   A
O7          C19 1.304       .   A
O8          C20 1.304       .   A
O9          C18 1.304       .   A
O10         C20 1.304       .   A
O11         C19 1.304       .   A
O12         C21 1.304       .   A
O13         C22 1.304       .   A
O14         C21 1.304       .   A
O15         C22 1.304       .   A
O16         C23 1.304       .   A
O17         C23 1.304       .   A
C18        C185 1.540       .   S
C19        C257 1.540       .   S
C20        C335 1.540       .   S
C21        C227 1.540       .   S
C22        C317 1.540       .   S
C23        C275 1.540       .   S
Zn24        O28 1.942       .   S
Zn24        O29 1.922       .   S
Zn24        O33 1.922       .   S
Zn24        O40 1.922       .   S
Zn25        O28 1.942       .   S
Zn25        O30 1.922       .   S
Zn25        O32 1.922       .   S
Zn25        O36 1.922       .   S
Zn26        O28 1.942       .   S
Zn26        O31 1.922       .   S
Zn26        O34 1.922       .   S
Zn26        O37 1.922       .   S
Zn27        O28 1.942       .   S
Zn27        O35 1.922       .   S
Zn27        O38 1.922       .   S
Zn27        O39 1.922       .   S
O29         C41 1.304       .   A
O30         C42 1.304       .   A
O31         C43 1.304       .   A
O32         C41 1.304       .   A
O33         C43 1.304       .   A
O34         C42 1.304       .   A
O35         C44 1.304       .   A
O36         C45 1.304       .   A
O37         C44 1.304       .   A
O38         C45 1.304       .   A
O39         C46 1.304       .   A
O40         C46 1.304       .   A
C41        C455 1.540       .   S
C42        C377 1.540       .   S
C43        C197 1.540   1_655   S
C44        C425 1.540       .   S
C45        C215 1.540   1_656   S
C46        C407 1.540       .   S
Zn47        O51 1.942       .   S
Zn47        O52 1.922       .   S
Zn47        O56 1.922       .   S
Zn47        O63 1.922       .   S
Zn48        O51 1.942       .   S
Zn48        O53 1.922       .   S
Zn48        O55 1.922       .   S
Zn48        O59 1.922       .   S
Zn49        O51 1.942       .   S
Zn49        O54 1.922       .   S
Zn49        O57 1.922       .   S
Zn49        O60 1.922       .   S
Zn50        O51 1.942       .   S
Zn50        O58 1.922       .   S
Zn50        O61 1.922       .   S
Zn50        O62 1.922       .   S
O52         C64 1.304       .   A
O53         C65 1.304       .   A
O54         C66 1.304       .   A
O55         C64 1.304       .   A
O56         C66 1.304       .   A
O57         C65 1.304       .   A
O58         C67 1.304       .   A
O59         C68 1.304       .   A
O60         C67 1.304       .   A
O61         C68 1.304       .   A
O62         C69 1.304       .   A
O63         C69 1.304       .   A
C64        C305 1.540   1_655   S
C65        C497 1.540       .   S
C66        C545 1.540       .   S
C67        C347 1.540   1_665   S
C68        C575 1.540       .   S
C69        C515 1.540       .   S
Zn70        O74 1.942       .   S
Zn70        O75 1.922       .   S
Zn70        O79 1.922       .   S
Zn70        O86 1.922       .   S
Zn71        O74 1.942       .   S
Zn71        O76 1.922       .   S
Zn71        O78 1.922       .   S
Zn71        O82 1.922       .   S
Zn72        O74 1.942       .   S
Zn72        O77 1.922       .   S
Zn72        O80 1.922       .   S
Zn72        O83 1.922       .   S
Zn73        O74 1.942       .   S
Zn73        O81 1.922       .   S
Zn73        O84 1.922       .   S
Zn73        O85 1.922       .   S
O75         C87 1.304       .   A
O76         C88 1.304       .   A
O77         C89 1.304       .   A
O78         C87 1.304       .   A
O79         C89 1.304       .   A
O80         C88 1.304       .   A
O81         C90 1.304       .   A
O82         C91 1.304       .   A
O83         C90 1.304       .   A
O84         C91 1.304       .   A
O85         C92 1.304       .   A
O86         C92 1.304       .   A
C87        C437 1.540       .   S
C88        C485 1.540       .   S
C89        C635 1.540       .   S
C90        C467 1.540   1_565   S
C91        C605 1.540       .   S
C92        C527 1.540   1_556   S
Zn93        O97 1.942       .   S
Zn93        O98 1.922       .   S
Zn93       O102 1.922       .   S
Zn93       O109 1.922       .   S
Zn94        O97 1.942       .   S
Zn94        O99 1.922       .   S
Zn94       O101 1.922       .   S
Zn94       O105 1.922       .   S
Zn95        O97 1.942       .   S
Zn95       O100 1.922       .   S
Zn95       O103 1.922       .   S
Zn95       O106 1.922       .   S
Zn96        O97 1.942       .   S
Zn96       O104 1.922       .   S
Zn96       O107 1.922       .   S
Zn96       O108 1.922       .   S
O98        C110 1.304       .   A
O99        C111 1.304       .   A
O100       C112 1.304       .   A
O101       C110 1.304       .   A
O102       C112 1.304       .   A
O103       C111 1.304       .   A
O104       C113 1.304       .   A
O105       C114 1.304       .   A
O106       C113 1.304       .   A
O107       C114 1.304       .   A
O108       C115 1.304       .   A
O109       C115 1.304       .   A
C110       C245 1.540   1_565   S
C111       C665 1.540       .   S
C112       C755 1.540       .   S
C113       C287 1.540   1_665   S
C114       C737 1.540       .   S
C115       C695 1.540       .   S
Zn116      O120 1.942       .   S
Zn116      O121 1.922       .   S
Zn116      O125 1.922       .   S
Zn116      O132 1.922       .   S
Zn117      O120 1.942       .   S
Zn117      O122 1.922       .   S
Zn117      O124 1.922       .   S
Zn117      O128 1.922       .   S
Zn118      O120 1.942       .   S
Zn118      O123 1.922       .   S
Zn118      O126 1.922       .   S
Zn118      O129 1.922       .   S
Zn119      O120 1.942       .   S
Zn119      O127 1.922       .   S
Zn119      O130 1.922       .   S
Zn119      O131 1.922       .   S
O121       C133 1.304       .   A
O122       C134 1.304       .   A
O123       C135 1.304       .   A
O124       C133 1.304       .   A
O125       C135 1.304       .   A
O126       C134 1.304       .   A
O127       C136 1.304       .   A
O128       C137 1.304       .   A
O129       C136 1.304       .   A
O130       C137 1.304       .   A
O131       C138 1.304       .   A
O132       C138 1.304       .   A
C133       C365 1.540   1_465   S
C134       C677 1.540       .   S
C135       C785 1.540       .   S
C136       C395 1.540   1_565   S
C137       C815 1.540       .   S
C138       C707 1.540   1_556   S
Zn139      O143 1.942       .   S
Zn139      O144 1.922       .   S
Zn139      O148 1.922       .   S
Zn139      O155 1.922       .   S
Zn140      O143 1.942       .   S
Zn140      O145 1.922       .   S
Zn140      O147 1.922       .   S
Zn140      O151 1.922       .   S
Zn141      O143 1.942       .   S
Zn141      O146 1.922       .   S
Zn141      O149 1.922       .   S
Zn141      O152 1.922       .   S
Zn142      O143 1.942       .   S
Zn142      O150 1.922       .   S
Zn142      O153 1.922       .   S
Zn142      O154 1.922       .   S
O144       C156 1.304       .   A
O145       C157 1.304       .   A
O146       C158 1.304       .   A
O147       C156 1.304       .   A
O148       C158 1.304       .   A
O149       C157 1.304       .   A
O150       C159 1.304       .   A
O151       C160 1.304       .   A
O152       C159 1.304       .   A
O153       C160 1.304       .   A
O154       C161 1.304       .   A
O155       C161 1.304       .   A
C156       C557 1.540   1_455   S
C157       C725 1.540   1_545   S
C158       C875 1.540       .   S
C159       C587 1.540       .   S
C160       C845 1.540       .   S
C161       C767 1.540       .   S
Zn162      O166 1.942       .   S
Zn162      O167 1.922       .   S
Zn162      O171 1.922       .   S
Zn162      O178 1.922       .   S
Zn163      O166 1.942       .   S
Zn163      O168 1.922       .   S
Zn163      O170 1.922       .   S
Zn163      O174 1.922       .   S
Zn164      O166 1.942       .   S
Zn164      O169 1.922       .   S
Zn164      O172 1.922       .   S
Zn164      O175 1.922       .   S
Zn165      O166 1.942       .   S
Zn165      O173 1.922       .   S
Zn165      O176 1.922       .   S
Zn165      O177 1.922       .   S
O167       C179 1.304       .   A
O168       C180 1.304       .   A
O169       C181 1.304       .   A
O170       C179 1.304       .   A
O171       C181 1.304       .   A
O172       C180 1.304       .   A
O173       C182 1.304       .   A
O174       C183 1.304       .   A
O175       C182 1.304       .   A
O176       C183 1.304       .   A
O177       C184 1.304       .   A
O178       C184 1.304       .   A
C179       C827 1.540       .   S
C180       C617 1.540   1_455   S
C181       C857 1.540       .   S
C182       C797 1.540   1_545   S
C183       C887 1.540   1_556   S
C184       C647 1.540       .   S
C875       C876 0.032       .   A
C875       C880 0.032       .   A
C876       C877 0.032       .   A
C876       O900 0.032       .   A
C877       C878 0.031       .   A
C877       H882 0.025       .   A
C878       C879 0.032       .   A
C878       C881 0.038       .   A
C879       C880 0.032       .   A
C879       C885 0.026       .   A
C880       O904 0.032       .   A
C881       C886 0.037       .   A
C881       N889 0.034       .   A
C881       H895 0.025       .   A
C883       H897 0.025       .   A
C883       H898 0.025       .   A
C883       H899 0.025       .   A
C883       O900 0.034       .   A
C884       H901 0.025       .   A
C884       H902 0.025       .   A
C884       H903 0.025       .   A
C884       O904 0.034       .   A
C885       N896 0.026       .   A
C886       C887 0.038       .   A
C886       H892 0.025       .   A
C886       H894 0.025       .   A
C887       N888 0.035       .   A
C887       H893 0.025       .   A
N888       N889 0.035       .   A
N888       H891 0.024       .   A
N889       H890 0.024       .   A
C845       C846 0.032       .   A
C845       C850 0.032       .   A
C846       C847 0.032       .   A
C846       O870 0.032       .   A
C847       C848 0.031       .   A
C847       H852 0.025       .   A
C848       C849 0.032       .   A
C848       C851 0.038       .   A
C849       C850 0.032       .   A
C849       C855 0.026       .   A
C850       O874 0.032       .   A
C851       C856 0.037       .   A
C851       N859 0.034       .   A
C851       H865 0.025       .   A
C853       H867 0.025       .   A
C853       H868 0.025       .   A
C853       H869 0.025       .   A
C853       O870 0.034       .   A
C854       H871 0.025       .   A
C854       H872 0.025       .   A
C854       H873 0.025       .   A
C854       O874 0.034       .   A
C855       N866 0.026       .   A
C856       C857 0.038       .   A
C856       H862 0.025       .   A
C856       H864 0.025       .   A
C857       N858 0.035       .   A
C857       H863 0.025       .   A
N858       N859 0.035       .   A
N858       H861 0.024       .   A
N859       H860 0.024       .   A
C815       C816 0.032       .   A
C815       C820 0.032       .   A
C816       C817 0.032       .   A
C816       O840 0.032       .   A
C817       C818 0.031       .   A
C817       H822 0.025       .   A
C818       C819 0.032       .   A
C818       C821 0.038       .   A
C819       C820 0.032       .   A
C819       C825 0.026       .   A
C820       O844 0.032       .   A
C821       C826 0.037       .   A
C821       N829 0.034       .   A
C821       H835 0.025       .   A
C823       H837 0.025       .   A
C823       H838 0.025       .   A
C823       H839 0.025       .   A
C823       O840 0.034       .   A
C824       H841 0.025       .   A
C824       H842 0.025       .   A
C824       H843 0.025       .   A
C824       O844 0.034       .   A
C825       N836 0.026       .   A
C826       C827 0.038       .   A
C826       H832 0.025       .   A
C826       H834 0.025       .   A
C827       N828 0.035       .   A
C827       H833 0.025       .   A
N828       N829 0.035       .   A
N828       H831 0.024       .   A
N829       H830 0.024       .   A
C785       C786 0.032       .   A
C785       C790 0.032       .   A
C786       C787 0.032       .   A
C786       O810 0.032       .   A
C787       C788 0.031       .   A
C787       H792 0.025       .   A
C788       C789 0.032       .   A
C788       C791 0.038       .   A
C789       C790 0.032       .   A
C789       C795 0.026       .   A
C790       O814 0.032       .   A
C791       C796 0.037       .   A
C791       N799 0.034       .   A
C791       H805 0.025       .   A
C793       H807 0.025       .   A
C793       H808 0.025       .   A
C793       H809 0.025       .   A
C793       O810 0.034       .   A
C794       H811 0.025       .   A
C794       H812 0.025       .   A
C794       H813 0.025       .   A
C794       O814 0.034       .   A
C795       N806 0.026       .   A
C796       C797 0.038       .   A
C796       H802 0.025       .   A
C796       H804 0.025       .   A
C797       N798 0.035       .   A
C797       H803 0.025       .   A
N798       N799 0.035       .   A
N798       H801 0.024       .   A
N799       H800 0.024       .   A
C755       C756 0.032       .   A
C755       C760 0.032       .   A
C756       C757 0.032       .   A
C756       O780 0.032       .   A
C757       C758 0.031       .   A
C757       H762 0.025       .   A
C758       C759 0.032       .   A
C758       C761 0.038       .   A
C759       C760 0.032       .   A
C759       C765 0.026       .   A
C760       O784 0.032       .   A
C761       C766 0.037       .   A
C761       N769 0.034       .   A
C761       H775 0.025       .   A
C763       H777 0.025       .   A
C763       H778 0.025       .   A
C763       H779 0.025       .   A
C763       O780 0.034       .   A
C764       H781 0.025       .   A
C764       H782 0.025       .   A
C764       H783 0.025       .   A
C764       O784 0.034       .   A
C765       N776 0.026       .   A
C766       C767 0.038       .   A
C766       H772 0.025       .   A
C766       H774 0.025       .   A
C767       N768 0.035       .   A
C767       H773 0.025       .   A
N768       N769 0.035       .   A
N768       H771 0.024       .   A
N769       H770 0.024       .   A
C725       C726 0.032       .   A
C725       C730 0.032       .   A
C726       C727 0.032       .   A
C726       O750 0.032       .   A
C727       C728 0.031       .   A
C727       H732 0.025       .   A
C728       C729 0.032       .   A
C728       C731 0.038       .   A
C729       C730 0.032       .   A
C729       C735 0.026       .   A
C730       O754 0.032       .   A
C731       C736 0.037       .   A
C731       N739 0.034       .   A
C731       H745 0.025       .   A
C733       H747 0.025       .   A
C733       H748 0.025       .   A
C733       H749 0.025       .   A
C733       O750 0.034       .   A
C734       H751 0.025       .   A
C734       H752 0.025       .   A
C734       H753 0.025       .   A
C734       O754 0.034       .   A
C735       N746 0.026       .   A
C736       C737 0.038       .   A
C736       H742 0.025       .   A
C736       H744 0.025       .   A
C737       N738 0.035       .   A
C737       H743 0.025       .   A
N738       N739 0.035       .   A
N738       H741 0.024       .   A
N739       H740 0.024       .   A
C695       C696 0.032       .   A
C695       C700 0.032       .   A
C696       C697 0.032       .   A
C696       O720 0.032       .   A
C697       C698 0.031       .   A
C697       H702 0.025       .   A
C698       C699 0.032       .   A
C698       C701 0.038       .   A
C699       C700 0.032       .   A
C699       C705 0.026       .   A
C700       O724 0.032       .   A
C701       C706 0.037       .   A
C701       N709 0.034       .   A
C701       H715 0.025       .   A
C703       H717 0.025       .   A
C703       H718 0.025       .   A
C703       H719 0.025       .   A
C703       O720 0.034       .   A
C704       H721 0.025       .   A
C704       H722 0.025       .   A
C704       H723 0.025       .   A
C704       O724 0.034       .   A
C705       N716 0.026       .   A
C706       C707 0.038       .   A
C706       H712 0.025       .   A
C706       H714 0.025       .   A
C707       N708 0.035       .   A
C707       H713 0.025       .   A
N708       N709 0.035       .   A
N708       H711 0.024       .   A
N709       H710 0.024       .   A
C665       C666 0.032       .   A
C665       C670 0.032       .   A
C666       C667 0.032       .   A
C666       O690 0.032       .   A
C667       C668 0.031       .   A
C667       H672 0.025       .   A
C668       C669 0.032       .   A
C668       C671 0.038       .   A
C669       C670 0.032       .   A
C669       C675 0.026       .   A
C670       O694 0.032       .   A
C671       C676 0.037       .   A
C671       N679 0.034       .   A
C671       H685 0.025       .   A
C673       H687 0.025       .   A
C673       H688 0.025       .   A
C673       H689 0.025       .   A
C673       O690 0.034       .   A
C674       H691 0.025       .   A
C674       H692 0.025       .   A
C674       H693 0.025       .   A
C674       O694 0.034       .   A
C675       N686 0.026       .   A
C676       C677 0.038       .   A
C676       H682 0.025       .   A
C676       H684 0.025       .   A
C677       N678 0.035       .   A
C677       H683 0.025       .   A
N678       N679 0.035       .   A
N678       H681 0.024       .   A
N679       H680 0.024       .   A
C635       C636 0.032       .   A
C635       C640 0.032       .   A
C636       C637 0.032       .   A
C636       O660 0.032       .   A
C637       C638 0.031       .   A
C637       H642 0.025       .   A
C638       C639 0.032       .   A
C638       C641 0.038       .   A
C639       C640 0.032       .   A
C639       C645 0.026       .   A
C640       O664 0.032       .   A
C641       C646 0.037       .   A
C641       N649 0.034       .   A
C641       H655 0.025       .   A
C643       H657 0.025       .   A
C643       H658 0.025       .   A
C643       H659 0.025       .   A
C643       O660 0.034       .   A
C644       H661 0.025       .   A
C644       H662 0.025       .   A
C644       H663 0.025       .   A
C644       O664 0.034       .   A
C645       N656 0.026       .   A
C646       C647 0.038       .   A
C646       H652 0.025       .   A
C646       H654 0.025       .   A
C647       N648 0.035       .   A
C647       H653 0.025       .   A
N648       N649 0.035       .   A
N648       H651 0.024       .   A
N649       H650 0.024       .   A
C605       C606 0.032       .   A
C605       C610 0.032       .   A
C606       C607 0.032       .   A
C606       O630 0.032       .   A
C607       C608 0.031       .   A
C607       H612 0.025       .   A
C608       C609 0.032       .   A
C608       C611 0.038       .   A
C609       C610 0.032       .   A
C609       C615 0.026       .   A
C610       O634 0.032       .   A
C611       C616 0.037       .   A
C611       N619 0.034       .   A
C611       H625 0.025       .   A
C613       H627 0.025       .   A
C613       H628 0.025       .   A
C613       H629 0.025       .   A
C613       O630 0.034       .   A
C614       H631 0.025       .   A
C614       H632 0.025       .   A
C614       H633 0.025       .   A
C614       O634 0.034       .   A
C615       N626 0.026       .   A
C616       C617 0.038       .   A
C616       H622 0.025       .   A
C616       H624 0.025       .   A
C617       N618 0.035       .   A
C617       H623 0.025       .   A
N618       N619 0.035       .   A
N618       H621 0.024       .   A
N619       H620 0.024       .   A
C575       C576 0.032       .   A
C575       C580 0.032       .   A
C576       C577 0.032       .   A
C576       O600 0.032       .   A
C577       C578 0.031       .   A
C577       H582 0.025       .   A
C578       C579 0.032       .   A
C578       C581 0.038       .   A
C579       C580 0.032       .   A
C579       C585 0.026       .   A
C580       O604 0.032       .   A
C581       C586 0.037       .   A
C581       N589 0.034       .   A
C581       H595 0.025       .   A
C583       H597 0.025       .   A
C583       H598 0.025       .   A
C583       H599 0.025       .   A
C583       O600 0.034       .   A
C584       H601 0.025       .   A
C584       H602 0.025       .   A
C584       H603 0.025       .   A
C584       O604 0.034       .   A
C585       N596 0.026       .   A
C586       C587 0.038       .   A
C586       H592 0.025       .   A
C586       H594 0.025       .   A
C587       N588 0.035       .   A
C587       H593 0.025       .   A
N588       N589 0.035       .   A
N588       H591 0.024       .   A
N589       H590 0.024       .   A
C545       C546 0.032       .   A
C545       C550 0.032       .   A
C546       C547 0.032       .   A
C546       O570 0.032       .   A
C547       C548 0.031       .   A
C547       H552 0.025       .   A
C548       C549 0.032       .   A
C548       C551 0.038       .   A
C549       C550 0.032       .   A
C549       C555 0.026       .   A
C550       O574 0.032       .   A
C551       C556 0.037       .   A
C551       N559 0.034       .   A
C551       H565 0.025       .   A
C553       H567 0.025       .   A
C553       H568 0.025       .   A
C553       H569 0.025       .   A
C553       O570 0.034       .   A
C554       H571 0.025       .   A
C554       H572 0.025       .   A
C554       H573 0.025       .   A
C554       O574 0.034       .   A
C555       N566 0.026       .   A
C556       C557 0.038       .   A
C556       H562 0.025       .   A
C556       H564 0.025       .   A
C557       N558 0.035       .   A
C557       H563 0.025       .   A
N558       N559 0.035       .   A
N558       H561 0.024       .   A
N559       H560 0.024       .   A
C515       C516 0.032       .   A
C515       C520 0.032       .   A
C516       C517 0.032       .   A
C516       O540 0.032       .   A
C517       C518 0.031       .   A
C517       H522 0.025       .   A
C518       C519 0.032       .   A
C518       C521 0.038       .   A
C519       C520 0.032       .   A
C519       C525 0.026       .   A
C520       O544 0.032       .   A
C521       C526 0.037       .   A
C521       N529 0.034       .   A
C521       H535 0.025       .   A
C523       H537 0.025       .   A
C523       H538 0.025       .   A
C523       H539 0.025       .   A
C523       O540 0.034       .   A
C524       H541 0.025       .   A
C524       H542 0.025       .   A
C524       H543 0.025       .   A
C524       O544 0.034       .   A
C525       N536 0.026       .   A
C526       C527 0.038       .   A
C526       H532 0.025       .   A
C526       H534 0.025       .   A
C527       N528 0.035       .   A
C527       H533 0.025       .   A
N528       N529 0.035       .   A
N528       H531 0.024       .   A
N529       H530 0.024       .   A
C485       C486 0.032       .   A
C485       C490 0.032       .   A
C486       C487 0.032       .   A
C486       O510 0.032       .   A
C487       C488 0.031       .   A
C487       H492 0.025       .   A
C488       C489 0.032       .   A
C488       C491 0.038       .   A
C489       C490 0.032       .   A
C489       C495 0.026       .   A
C490       O514 0.032       .   A
C491       C496 0.037       .   A
C491       N499 0.034       .   A
C491       H505 0.025       .   A
C493       H507 0.025       .   A
C493       H508 0.025       .   A
C493       H509 0.025       .   A
C493       O510 0.034       .   A
C494       H511 0.025       .   A
C494       H512 0.025       .   A
C494       H513 0.025       .   A
C494       O514 0.034       .   A
C495       N506 0.026       .   A
C496       C497 0.038       .   A
C496       H502 0.025       .   A
C496       H504 0.025       .   A
C497       N498 0.035       .   A
C497       H503 0.025       .   A
N498       N499 0.035       .   A
N498       H501 0.024       .   A
N499       H500 0.024       .   A
C455       C456 0.032       .   A
C455       C460 0.032       .   A
C456       C457 0.032       .   A
C456       O480 0.032       .   A
C457       C458 0.031       .   A
C457       H462 0.025       .   A
C458       C459 0.032       .   A
C458       C461 0.038       .   A
C459       C460 0.032       .   A
C459       C465 0.026       .   A
C460       O484 0.032       .   A
C461       C466 0.037       .   A
C461       N469 0.034       .   A
C461       H475 0.025       .   A
C463       H477 0.025       .   A
C463       H478 0.025       .   A
C463       H479 0.025       .   A
C463       O480 0.034       .   A
C464       H481 0.025       .   A
C464       H482 0.025       .   A
C464       H483 0.025       .   A
C464       O484 0.034       .   A
C465       N476 0.026       .   A
C466       C467 0.038       .   A
C466       H472 0.025       .   A
C466       H474 0.025       .   A
C467       N468 0.035       .   A
C467       H473 0.025       .   A
N468       N469 0.035       .   A
N468       H471 0.024       .   A
N469       H470 0.024       .   A
C425       C426 0.032       .   A
C425       C430 0.032       .   A
C426       C427 0.032       .   A
C426       O450 0.032       .   A
C427       C428 0.031       .   A
C427       H432 0.025       .   A
C428       C429 0.032       .   A
C428       C431 0.038       .   A
C429       C430 0.032       .   A
C429       C435 0.026       .   A
C430       O454 0.032       .   A
C431       C436 0.037       .   A
C431       N439 0.034       .   A
C431       H445 0.025       .   A
C433       H447 0.025       .   A
C433       H448 0.025       .   A
C433       H449 0.025       .   A
C433       O450 0.034       .   A
C434       H451 0.025       .   A
C434       H452 0.025       .   A
C434       H453 0.025       .   A
C434       O454 0.034       .   A
C435       N446 0.026       .   A
C436       C437 0.038       .   A
C436       H442 0.025       .   A
C436       H444 0.025       .   A
C437       N438 0.035       .   A
C437       H443 0.025       .   A
N438       N439 0.035       .   A
N438       H441 0.024       .   A
N439       H440 0.024       .   A
C395       C396 0.032       .   A
C395       C400 0.032       .   A
C396       C397 0.032       .   A
C396       O420 0.032       .   A
C397       C398 0.031       .   A
C397       H402 0.025       .   A
C398       C399 0.032       .   A
C398       C401 0.038       .   A
C399       C400 0.032       .   A
C399       C405 0.026       .   A
C400       O424 0.032       .   A
C401       C406 0.037       .   A
C401       N409 0.034       .   A
C401       H415 0.025       .   A
C403       H417 0.025       .   A
C403       H418 0.025       .   A
C403       H419 0.025       .   A
C403       O420 0.034       .   A
C404       H421 0.025       .   A
C404       H422 0.025       .   A
C404       H423 0.025       .   A
C404       O424 0.034       .   A
C405       N416 0.026       .   A
C406       C407 0.038       .   A
C406       H412 0.025       .   A
C406       H414 0.025       .   A
C407       N408 0.035       .   A
C407       H413 0.025       .   A
N408       N409 0.035       .   A
N408       H411 0.024       .   A
N409       H410 0.024       .   A
C365       C366 0.032       .   A
C365       C370 0.032       .   A
C366       C367 0.032       .   A
C366       O390 0.032       .   A
C367       C368 0.031       .   A
C367       H372 0.025       .   A
C368       C369 0.032       .   A
C368       C371 0.038       .   A
C369       C370 0.032       .   A
C369       C375 0.026       .   A
C370       O394 0.032       .   A
C371       C376 0.037       .   A
C371       N379 0.034       .   A
C371       H385 0.025       .   A
C373       H387 0.025       .   A
C373       H388 0.025       .   A
C373       H389 0.025       .   A
C373       O390 0.034       .   A
C374       H391 0.025       .   A
C374       H392 0.025       .   A
C374       H393 0.025       .   A
C374       O394 0.034       .   A
C375       N386 0.026       .   A
C376       C377 0.038       .   A
C376       H382 0.025       .   A
C376       H384 0.025       .   A
C377       N378 0.035       .   A
C377       H383 0.025       .   A
N378       N379 0.035       .   A
N378       H381 0.024       .   A
N379       H380 0.024       .   A
C335       C336 0.032       .   A
C335       C340 0.032       .   A
C336       C337 0.032       .   A
C336       O360 0.032       .   A
C337       C338 0.031       .   A
C337       H342 0.025       .   A
C338       C339 0.032       .   A
C338       C341 0.038       .   A
C339       C340 0.032       .   A
C339       C345 0.026       .   A
C340       O364 0.032       .   A
C341       C346 0.037       .   A
C341       N349 0.034       .   A
C341       H355 0.025       .   A
C343       H357 0.025       .   A
C343       H358 0.025       .   A
C343       H359 0.025       .   A
C343       O360 0.034       .   A
C344       H361 0.025       .   A
C344       H362 0.025       .   A
C344       H363 0.025       .   A
C344       O364 0.034       .   A
C345       N356 0.026       .   A
C346       C347 0.038       .   A
C346       H352 0.025       .   A
C346       H354 0.025       .   A
C347       N348 0.035       .   A
C347       H353 0.025       .   A
N348       N349 0.035       .   A
N348       H351 0.024       .   A
N349       H350 0.024       .   A
C305       C306 0.032       .   A
C305       C310 0.032       .   A
C306       C307 0.032       .   A
C306       O330 0.032       .   A
C307       C308 0.031       .   A
C307       H312 0.025       .   A
C308       C309 0.032       .   A
C308       C311 0.038       .   A
C309       C310 0.032       .   A
C309       C315 0.026       .   A
C310       O334 0.032       .   A
C311       C316 0.037       .   A
C311       N319 0.034       .   A
C311       H325 0.025       .   A
C313       H327 0.025       .   A
C313       H328 0.025       .   A
C313       H329 0.025       .   A
C313       O330 0.034       .   A
C314       H331 0.025       .   A
C314       H332 0.025       .   A
C314       H333 0.025       .   A
C314       O334 0.034       .   A
C315       N326 0.026       .   A
C316       C317 0.038       .   A
C316       H322 0.025       .   A
C316       H324 0.025       .   A
C317       N318 0.035       .   A
C317       H323 0.025       .   A
N318       N319 0.035       .   A
N318       H321 0.024       .   A
N319       H320 0.024       .   A
C275       C276 0.032       .   A
C275       C280 0.032       .   A
C276       C277 0.032       .   A
C276       O300 0.032       .   A
C277       C278 0.031       .   A
C277       H282 0.025       .   A
C278       C279 0.032       .   A
C278       C281 0.038       .   A
C279       C280 0.032       .   A
C279       C285 0.026       .   A
C280       O304 0.032       .   A
C281       C286 0.037       .   A
C281       N289 0.034       .   A
C281       H295 0.025       .   A
C283       H297 0.025       .   A
C283       H298 0.025       .   A
C283       H299 0.025       .   A
C283       O300 0.034       .   A
C284       H301 0.025       .   A
C284       H302 0.025       .   A
C284       H303 0.025       .   A
C284       O304 0.034       .   A
C285       N296 0.026       .   A
C286       C287 0.038       .   A
C286       H292 0.025       .   A
C286       H294 0.025       .   A
C287       N288 0.035       .   A
C287       H293 0.025       .   A
N288       N289 0.035       .   A
N288       H291 0.024       .   A
N289       H290 0.024       .   A
C245       C246 0.032       .   A
C245       C250 0.032       .   A
C246       C247 0.032       .   A
C246       O270 0.032       .   A
C247       C248 0.031       .   A
C247       H252 0.025       .   A
C248       C249 0.032       .   A
C248       C251 0.038       .   A
C249       C250 0.032       .   A
C249       C255 0.026       .   A
C250       O274 0.032       .   A
C251       C256 0.037       .   A
C251       N259 0.034       .   A
C251       H265 0.025       .   A
C253       H267 0.025       .   A
C253       H268 0.025       .   A
C253       H269 0.025       .   A
C253       O270 0.034       .   A
C254       H271 0.025       .   A
C254       H272 0.025       .   A
C254       H273 0.025       .   A
C254       O274 0.034       .   A
C255       N266 0.026       .   A
C256       C257 0.038       .   A
C256       H262 0.025       .   A
C256       H264 0.025       .   A
C257       N258 0.035       .   A
C257       H263 0.025       .   A
N258       N259 0.035       .   A
N258       H261 0.024       .   A
N259       H260 0.024       .   A
C215       C216 0.032       .   A
C215       C220 0.032       .   A
C216       C217 0.032       .   A
C216       O240 0.032       .   A
C217       C218 0.031       .   A
C217       H222 0.025       .   A
C218       C219 0.032       .   A
C218       C221 0.038       .   A
C219       C220 0.032       .   A
C219       C225 0.026       .   A
C220       O244 0.032       .   A
C221       C226 0.037       .   A
C221       N229 0.034       .   A
C221       H235 0.025       .   A
C223       H237 0.025       .   A
C223       H238 0.025       .   A
C223       H239 0.025       .   A
C223       O240 0.034       .   A
C224       H241 0.025       .   A
C224       H242 0.025       .   A
C224       H243 0.025       .   A
C224       O244 0.034       .   A
C225       N236 0.026       .   A
C226       C227 0.038       .   A
C226       H232 0.025       .   A
C226       H234 0.025       .   A
C227       N228 0.035       .   A
C227       H233 0.025       .   A
N228       N229 0.035       .   A
N228       H231 0.024       .   A
N229       H230 0.024       .   A
C185       C186 0.032       .   A
C185       C190 0.032       .   A
C186       C187 0.032       .   A
C186       O210 0.032       .   A
C187       C188 0.031       .   A
C187       H192 0.025       .   A
C188       C189 0.032       .   A
C188       C191 0.038       .   A
C189       C190 0.032       .   A
C189       C195 0.026       .   A
C190       O214 0.032       .   A
C191       C196 0.037       .   A
C191       N199 0.034       .   A
C191       H205 0.025       .   A
C193       H207 0.025       .   A
C193       H208 0.025       .   A
C193       H209 0.025       .   A
C193       O210 0.034       .   A
C194       H211 0.025       .   A
C194       H212 0.025       .   A
C194       H213 0.025       .   A
C194       O214 0.034       .   A
C195       N206 0.026       .   A
C196       C197 0.038       .   A
C196       H202 0.025       .   A
C196       H204 0.025       .   A
C197       N198 0.035       .   A
C197       H203 0.025       .   A
N198       N199 0.035       .   A
N198       H201 0.024       .   A
N199       H200 0.024       .   A
