data_pcu_v1-6c_Zn_1_Ch_1-82_fer_tobacco
_audit_creation_date              2021-04-07
_audit_creation_method            'tobacco_3.0'
_symmetry_space_group_name_H-M    'P1'
_symmetry_Int_Tables_number       1
_symmetry_cell_setting            triclinic
loop_
_symmetry_equiv_pos_as_xyz
  x,y,z
_cell_length_a                    34.69253806546983
_cell_length_b                    34.69253806546983
_cell_length_c                    34.69253806546983
_cell_angle_alpha                 90.0
_cell_angle_beta                  90.0
_cell_angle_gamma                 90.0
loop_
_atom_site_label
_atom_site_type_symbol
_atom_site_fract_x
_atom_site_fract_y
_atom_site_fract_z
_atom_site_charge
Zn1       Zn   -0.0323181889   -0.0323181889    0.0323181889          1.4972
Zn2       Zn    0.0323181889    0.0323181889    0.0323181889          1.4936
Zn3       Zn    0.0323181889   -0.0323181889   -0.0323181889          1.4911
Zn4       Zn   -0.0323181889    0.0323181889   -0.0323181889          1.4948
O5         O    0.0000000000    0.0000000000    0.0000000000          -2.377
O6         O   -0.0237515053   -0.0237515053    0.0863759231         -1.2833
O7         O    0.0863759231    0.0237515053    0.0237515053         -1.2815
O8         O    0.0237515053   -0.0863759231   -0.0237515053         -1.2766
O9         O    0.0237515053    0.0237515053    0.0863759231         -1.2834
O10        O   -0.0237515053   -0.0863759231    0.0237515053         -1.2794
O11        O    0.0863759231   -0.0237515053   -0.0237515053         -1.2853
O12        O   -0.0237515053    0.0237515053   -0.0863759231         -1.2792
O13        O    0.0237515053    0.0863759231    0.0237515053         -1.2867
O14        O    0.0237515053   -0.0237515053   -0.0863759231         -1.2806
O15        O   -0.0237515053    0.0863759231   -0.0237515053         -1.2853
O16        O   -0.0863759231    0.0237515053   -0.0237515053         -1.2844
O17        O   -0.0863759231   -0.0237515053    0.0237515053         -1.2823
C18        C   -0.0000000000   -0.0000000000    0.1032729284          0.2356
C19        C    0.1032729284   -0.0000000000   -0.0000000000          0.2405
C20        C   -0.0000000000   -0.1032729284    0.0000000000          0.2301
C21        C    0.0000000000    0.0000000000   -0.1032729284          0.2339
C22        C    0.0000000000    0.1032729284   -0.0000000000          0.2452
C23        C   -0.1032729284    0.0000000000    0.0000000000          0.2357
Zn24      Zn    0.9676818111    0.0323181889    0.4676818111          1.4972
Zn25      Zn    1.0323181889   -0.0323181889    0.4676818111          1.4936
Zn26      Zn    1.0323181889    0.0323181889    0.5323181889          1.4911
Zn27      Zn    0.9676818111   -0.0323181889    0.5323181889          1.4948
O28        O    1.0000000000    0.0000000000    0.5000000000          -2.377
O29        O    0.9762484947    0.0237515053    0.4136240769         -1.2833
O30        O    1.0863759231   -0.0237515053    0.4762484947         -1.2815
O31        O    1.0237515053    0.0863759231    0.5237515053         -1.2766
O32        O    1.0237515053   -0.0237515053    0.4136240769         -1.2834
O33        O    0.9762484947    0.0863759231    0.4762484947         -1.2794
O34        O    1.0863759231    0.0237515053    0.5237515053         -1.2853
O35        O    0.9762484947   -0.0237515053    0.5863759231         -1.2792
O36        O    1.0237515053   -0.0863759231    0.4762484947         -1.2867
O37        O    1.0237515053    0.0237515053    0.5863759231         -1.2806
O38        O    0.9762484947   -0.0863759231    0.5237515053         -1.2853
O39        O    0.9136240769   -0.0237515053    0.5237515053         -1.2844
O40        O    0.9136240769    0.0237515053    0.4762484947         -1.2823
C41        C    1.0000000000    0.0000000000    0.3967270716          0.2356
C42        C    1.1032729284    0.0000000000    0.5000000000          0.2405
C43        C    1.0000000000    0.1032729284    0.5000000000          0.2301
C44        C    1.0000000000    0.0000000000    0.6032729284          0.2339
C45        C    1.0000000000   -0.1032729284    0.5000000000          0.2452
C46        C    0.8967270716    0.0000000000    0.5000000000          0.2357
Zn47      Zn    1.0323181889    0.5323181889   -0.0323181889          1.4972
Zn48      Zn    1.0323181889    0.4676818111    0.0323181889          1.4936
Zn49      Zn    0.9676818111    0.5323181889    0.0323181889          1.4911
Zn50      Zn    0.9676818111    0.4676818111   -0.0323181889          1.4948
O51        O    1.0000000000    0.5000000000    0.0000000000          -2.377
O52        O    1.0863759231    0.5237515053   -0.0237515053         -1.2833
O53        O    1.0237515053    0.4762484947    0.0863759231         -1.2815
O54        O    0.9762484947    0.5863759231    0.0237515053         -1.2766
O55        O    1.0863759231    0.4762484947    0.0237515053         -1.2834
O56        O    1.0237515053    0.5863759231   -0.0237515053         -1.2794
O57        O    0.9762484947    0.5237515053    0.0863759231         -1.2853
O58        O    0.9136240769    0.4762484947   -0.0237515053         -1.2792
O59        O    1.0237515053    0.4136240769    0.0237515053         -1.2867
O60        O    0.9136240769    0.5237515053    0.0237515053         -1.2806
O61        O    0.9762484947    0.4136240769   -0.0237515053         -1.2853
O62        O    0.9762484947    0.4762484947   -0.0863759231         -1.2844
O63        O    1.0237515053    0.5237515053   -0.0863759231         -1.2823
C64        C    1.1032729284    0.5000000000    0.0000000000          0.2356
C65        C    1.0000000000    0.5000000000    0.1032729284          0.2405
C66        C    1.0000000000    0.6032729284    0.0000000000          0.2301
C67        C    0.8967270716    0.5000000000    0.0000000000          0.2339
C68        C    1.0000000000    0.3967270716    0.0000000000          0.2452
C69        C    1.0000000000    0.5000000000   -0.1032729284          0.2357
Zn70      Zn    1.0323181889    0.4676818111    0.4676818111          1.4972
Zn71      Zn    0.9676818111    0.4676818111    0.5323181889          1.4936
Zn72      Zn    1.0323181889    0.5323181889    0.5323181889          1.4911
Zn73      Zn    0.9676818111    0.5323181889    0.4676818111          1.4948
O74        O    1.0000000000    0.5000000000    0.5000000000          -2.377
O75        O    1.0237515053    0.4136240769    0.4762484947         -1.2833
O76        O    0.9762484947    0.4762484947    0.5863759231         -1.2815
O77        O    1.0863759231    0.5237515053    0.5237515053         -1.2766
O78        O    0.9762484947    0.4136240769    0.5237515053         -1.2834
O79        O    1.0863759231    0.4762484947    0.4762484947         -1.2794
O80        O    1.0237515053    0.5237515053    0.5863759231         -1.2853
O81        O    0.9762484947    0.5863759231    0.4762484947         -1.2792
O82        O    0.9136240769    0.4762484947    0.5237515053         -1.2867
O83        O    1.0237515053    0.5863759231    0.5237515053         -1.2806
O84        O    0.9136240769    0.5237515053    0.4762484947         -1.2853
O85        O    0.9762484947    0.5237515053    0.4136240769         -1.2844
O86        O    1.0237515053    0.4762484947    0.4136240769         -1.2823
C87        C    1.0000000000    0.3967270716    0.5000000000          0.2356
C88        C    1.0000000000    0.5000000000    0.6032729284          0.2405
C89        C    1.1032729284    0.5000000000    0.5000000000          0.2301
C90        C    1.0000000000    0.6032729284    0.5000000000          0.2339
C91        C    0.8967270716    0.5000000000    0.5000000000          0.2452
C92        C    1.0000000000    0.5000000000    0.3967270716          0.2357
Zn93      Zn    0.4676818111    0.9676818111   -0.0323181889          1.4972
Zn94      Zn    0.4676818111    1.0323181889    0.0323181889          1.4936
Zn95      Zn    0.5323181889    0.9676818111    0.0323181889          1.4911
Zn96      Zn    0.5323181889    1.0323181889   -0.0323181889          1.4948
O97        O    0.5000000000    1.0000000000    0.0000000000          -2.377
O98        O    0.4136240769    0.9762484947   -0.0237515053         -1.2833
O99        O    0.4762484947    1.0237515053    0.0863759231         -1.2815
O100       O    0.5237515053    0.9136240769    0.0237515053         -1.2766
O101       O    0.4136240769    1.0237515053    0.0237515053         -1.2834
O102       O    0.4762484947    0.9136240769   -0.0237515053         -1.2794
O103       O    0.5237515053    0.9762484947    0.0863759231         -1.2853
O104       O    0.5863759231    1.0237515053   -0.0237515053         -1.2792
O105       O    0.4762484947    1.0863759231    0.0237515053         -1.2867
O106       O    0.5863759231    0.9762484947    0.0237515053         -1.2806
O107       O    0.5237515053    1.0863759231   -0.0237515053         -1.2853
O108       O    0.5237515053    1.0237515053   -0.0863759231         -1.2844
O109       O    0.4762484947    0.9762484947   -0.0863759231         -1.2823
C110       C    0.3967270716    1.0000000000    0.0000000000          0.2356
C111       C    0.5000000000    1.0000000000    0.1032729284          0.2405
C112       C    0.5000000000    0.8967270716    0.0000000000          0.2301
C113       C    0.6032729284    1.0000000000    0.0000000000          0.2339
C114       C    0.5000000000    1.1032729284    0.0000000000          0.2452
C115       C    0.5000000000    1.0000000000   -0.1032729284          0.2357
Zn116     Zn    0.4676818111    1.0323181889    0.5323181889          1.4972
Zn117     Zn    0.4676818111    0.9676818111    0.4676818111          1.4936
Zn118     Zn    0.5323181889    1.0323181889    0.4676818111          1.4911
Zn119     Zn    0.5323181889    0.9676818111    0.5323181889          1.4948
O120       O    0.5000000000    1.0000000000    0.5000000000          -2.377
O121       O    0.4136240769    1.0237515053    0.5237515053         -1.2833
O122       O    0.4762484947    0.9762484947    0.4136240769         -1.2815
O123       O    0.5237515053    1.0863759231    0.4762484947         -1.2766
O124       O    0.4136240769    0.9762484947    0.4762484947         -1.2834
O125       O    0.4762484947    1.0863759231    0.5237515053         -1.2794
O126       O    0.5237515053    1.0237515053    0.4136240769         -1.2853
O127       O    0.5863759231    0.9762484947    0.5237515053         -1.2792
O128       O    0.4762484947    0.9136240769    0.4762484947         -1.2867
O129       O    0.5863759231    1.0237515053    0.4762484947         -1.2806
O130       O    0.5237515053    0.9136240769    0.5237515053         -1.2853
O131       O    0.5237515053    0.9762484947    0.5863759231         -1.2844
O132       O    0.4762484947    1.0237515053    0.5863759231         -1.2823
C133       C    0.3967270716    1.0000000000    0.5000000000          0.2356
C134       C    0.5000000000    1.0000000000    0.3967270716          0.2405
C135       C    0.5000000000    1.1032729284    0.5000000000          0.2301
C136       C    0.6032729284    1.0000000000    0.5000000000          0.2339
C137       C    0.5000000000    0.8967270716    0.5000000000          0.2452
C138       C    0.5000000000    1.0000000000    0.6032729284          0.2357
Zn139     Zn    0.4676818111    0.5323181889   -0.0323181889          1.4972
Zn140     Zn    0.4676818111    0.4676818111    0.0323181889          1.4936
Zn141     Zn    0.5323181889    0.4676818111   -0.0323181889          1.4911
Zn142     Zn    0.5323181889    0.5323181889    0.0323181889          1.4948
O143       O    0.5000000000    0.5000000000    0.0000000000          -2.377
O144       O    0.4136240769    0.5237515053   -0.0237515053         -1.2833
O145       O    0.4762484947    0.4136240769    0.0237515053         -1.2815
O146       O    0.5237515053    0.4762484947   -0.0863759231         -1.2766
O147       O    0.4136240769    0.4762484947    0.0237515053         -1.2834
O148       O    0.4762484947    0.5237515053   -0.0863759231         -1.2794
O149       O    0.5237515053    0.4136240769   -0.0237515053         -1.2853
O150       O    0.5863759231    0.5237515053    0.0237515053         -1.2792
O151       O    0.4762484947    0.4762484947    0.0863759231         -1.2867
O152       O    0.5863759231    0.4762484947   -0.0237515053         -1.2806
O153       O    0.5237515053    0.5237515053    0.0863759231         -1.2853
O154       O    0.5237515053    0.5863759231    0.0237515053         -1.2844
O155       O    0.4762484947    0.5863759231   -0.0237515053         -1.2823
C156       C    0.3967270716    0.5000000000    0.0000000000          0.2356
C157       C    0.5000000000    0.3967270716    0.0000000000          0.2405
C158       C    0.5000000000    0.5000000000   -0.1032729284          0.2301
C159       C    0.6032729284    0.5000000000    0.0000000000          0.2339
C160       C    0.5000000000    0.5000000000    0.1032729284          0.2452
C161       C    0.5000000000    0.6032729284    0.0000000000          0.2357
Zn162     Zn    0.4676818111    0.4676818111    0.4676818111          1.4972
Zn163     Zn    0.4676818111    0.5323181889    0.5323181889          1.4936
Zn164     Zn    0.5323181889    0.4676818111    0.5323181889          1.4911
Zn165     Zn    0.5323181889    0.5323181889    0.4676818111          1.4948
O166       O    0.5000000000    0.5000000000    0.5000000000          -2.377
O167       O    0.4136240769    0.4762484947    0.4762484947         -1.2833
O168       O    0.4762484947    0.5237515053    0.5863759231         -1.2815
O169       O    0.5237515053    0.4136240769    0.5237515053         -1.2766
O170       O    0.4136240769    0.5237515053    0.5237515053         -1.2834
O171       O    0.4762484947    0.4136240769    0.4762484947         -1.2794
O172       O    0.5237515053    0.4762484947    0.5863759231         -1.2853
O173       O    0.5863759231    0.5237515053    0.4762484947         -1.2792
O174       O    0.4762484947    0.5863759231    0.5237515053         -1.2867
O175       O    0.5863759231    0.4762484947    0.5237515053         -1.2806
O176       O    0.5237515053    0.5863759231    0.4762484947         -1.2853
O177       O    0.5237515053    0.5237515053    0.4136240769         -1.2844
O178       O    0.4762484947    0.4762484947    0.4136240769         -1.2823
C179       C    0.3967270716    0.5000000000    0.5000000000          0.2356
C180       C    0.5000000000    0.5000000000    0.6032729284          0.2405
C181       C    0.5000000000    0.3967270716    0.5000000000          0.2301
C182       C    0.6032729284    0.5000000000    0.5000000000          0.2339
C183       C    0.5000000000    0.6032729284    0.5000000000          0.2452
C184       C    0.5000000000    0.5000000000    0.3967270716          0.2357
C806       C    0.5000000000    0.5000000000   -0.1476628775          0.4525
C807       C    0.4974878000    0.4651563268   -0.1655658431          0.4545
C808       C    0.4925716435    0.4605602414   -0.2049021867          0.4577
C809       C    0.4924467383    0.4908025516   -0.2305310135          0.4568
C810       C    0.4952097054    0.5251917659   -0.2121417262          0.4546
C811       C    0.4983066551    0.5295587011   -0.1730635618          0.4529
C812       C    0.4867160397    0.4858585985   -0.2777554146          0.4605
C813       C    0.4861629194    0.4190107854   -0.2195597734         -0.5369
Cl814     Cl    0.4995868901    0.4245418808   -0.1362001309           0.454
Br815     Br    0.5022756173    0.5805825149   -0.1544195601          0.4494
H816       H    0.4946521001    0.5510461179   -0.2298417915          0.4543
C817       C    0.4857350039    0.5182351412   -0.3113073105          0.4601
C818       C    0.5000000000    0.5000000000   -0.3523371225           0.448
N819       N    0.5019910192    0.4591902659   -0.3397779670          0.4472
N820       N    0.5138561697    0.4599541199   -0.2985437126          0.4385
H821       H    0.5126034493    0.4320852695   -0.2892595204          0.4401
H822       H    0.4748801904    0.4479089748   -0.3392014858         -0.5309
H823       H    0.5049062181    0.5419778919   -0.3036219280          0.4445
H824       H    0.5298147747    0.5093218711   -0.3564737618          0.4238
H825       H    0.4566044468    0.5299341143   -0.3139032296         -0.5167
H826       H    0.4585012594    0.4719452677   -0.2801158950         -0.5167
C827       C    0.4482781435    0.4004582608   -0.2048908304         -0.5059
H828       H    0.4539759651    0.3800209365   -0.1816108852         -0.5097
H829       H    0.4341010095    0.3843723849   -0.2279444401         -0.4948
H830       H    0.4281965774    0.4222477163   -0.1942622889         -0.4898
H831       H    0.4843667097    0.4172148410   -0.2506509944         -0.5361
H832       H    0.5106356993    0.4007439088   -0.2118993630          0.4438
C779       C    0.5000000000    0.5000000000    0.3523371225          0.4525
C780       C    0.5348149923    0.4971174622    0.3344341569          0.4545
C781       C    0.5393585462    0.4921527151    0.2950978133          0.4577
C782       C    0.5091166174    0.4923493722    0.2694689865          0.4568
C783       C    0.4747587247    0.4954778309    0.2878582738          0.4546
C784       C    0.4704249650    0.4986210375    0.3269364382          0.4529
C785       C    0.5139993587    0.4865664304    0.2222445854          0.4605
C786       C    0.5808375119    0.4853025735    0.2804402266         -0.5369
Cl787     Cl    0.5754494613    0.4987845954    0.3637998691           0.454
Br788     Br    0.4194462361    0.5031322925    0.3455804399          0.4494
H789       H    0.4488999054    0.4951951568    0.2701582085          0.4543
C790       C    0.4816142152    0.4859296977    0.1886926895          0.4601
C791       C    0.5000000000    0.5000000000    0.1476628775           0.448
N792       N    0.5408285970    0.5015569919    0.1602220330          0.4472
N793       N    0.5401909439    0.5134295936    0.2014562874          0.4385
H794       H    0.5680448992    0.5118806248    0.2107404796          0.4401
H795       H    0.5518209911    0.4743277459    0.1607985142         -0.5309
H796       H    0.4580766470    0.5053522760    0.1963780720          0.4445
H797       H    0.4909956652    0.5299122053    0.1435262382          0.4238
H798       H    0.4696061691    0.4569251781    0.1860967704         -0.5167
H799       H    0.5276119058    0.4582053097    0.2198841050         -0.5167
C800       C    0.5989861730    0.4472226770    0.2951091696         -0.5059
H801       H    0.6194829249    0.4527028741    0.3183891148         -0.5097
H802       H    0.6149203995    0.4328753093    0.2720555599         -0.4948
H803       H    0.5769844295    0.4273739252    0.3057377111         -0.4898
H804       H    0.5826142563    0.4834873696    0.2493490056         -0.5361
H805       H    0.5993635659    0.5095797451    0.2881006370          0.4438
C752       C    0.5000000000    0.8523371225    0.5000000000          0.4525
C753       C    0.5062925476    0.8344341569    0.4656372795          0.4545
C754       C    0.5116800754    0.7950978133    0.4616040252          0.4577
C755       C    0.5085101391    0.7694689865    0.4916800029          0.4568
C756       C    0.5020178177    0.7878582738    0.5255636540          0.4546
C757       C    0.4984636325    0.8269364382    0.5295672759          0.4529
C758       C    0.5147452535    0.7222445854    0.4873896734          0.4605
C759       C    0.5225763806    0.7804402266    0.4209998435         -0.5369
Cl760     Cl    0.5086298144    0.8637998691    0.4250358437           0.454
Br761     Br    0.4889605927    0.8455804399    0.5798551916          0.4494
H762       H    0.4997559587    0.7701582085    0.5513249123          0.4543
C763       C    0.5121938859    0.6886926895    0.5196804379          0.4601
C764       C    0.5000000000    0.6476628775    0.5000000000           0.448
N765       N    0.5024659662    0.6602220330    0.4592162095          0.4472
N766       N    0.4905882100    0.7014562874    0.4586831250          0.4385
H767       H    0.4948690497    0.7107404796    0.4311165412          0.4401
H768       H    0.5306442870    0.6607985142    0.4509550469         -0.5309
H769       H    0.4905505943    0.6963780720    0.5411937266          0.4445
H770       H    0.4693472483    0.6435262382    0.5060188776          0.4238
H771       H    0.5398768270    0.6860967704    0.5344828059         -0.5167
H772       H    0.5443076484    0.7198841050    0.4766323776         -0.5167
C773       C    0.5622565531    0.7951091696    0.4066842464         -0.5059
H774       H    0.5588187377    0.8183891148    0.3857478947         -0.5097
H775       H    0.5781014650    0.7720555599    0.3922383023         -0.4948
H776       H    0.5798452529    0.8057377111    0.4305314120         -0.4898
H777       H    0.5245575237    0.7493490056    0.4194102343         -0.5361
H778       H    0.5002389026    0.7881006370    0.4001759915          0.4438
C725       C    0.5000000000    1.1476628775    0.5000000000          0.4525
C726       C    0.4651850077    1.1655658431    0.5028825378          0.4545
C727       C    0.4606414538    1.2049021867    0.5078472849          0.4577
C728       C    0.4908833826    1.2305310135    0.5076506278          0.4568
C729       C    0.5252412753    1.2121417262    0.5045221691          0.4546
C730       C    0.5295750350    1.1730635618    0.5013789625          0.4529
C731       C    0.4860006413    1.2777554146    0.5134335696          0.4605
C732       C    0.4191624881    1.2195597734    0.5146974265         -0.5369
Cl733     Cl    0.4245505387    1.1362001309    0.5012154046           0.454
Br734     Br    0.5805537639    1.1544195601    0.4968677075          0.4494
H735       H    0.5511000946    1.2298417915    0.5048048432          0.4543
C736       C    0.5183857848    1.3113073105    0.5140703023          0.4601
C737       C    0.5000000000    1.3523371225    0.5000000000           0.448
N738       N    0.4591714030    1.3397779670    0.4984430081          0.4472
N739       N    0.4598090561    1.2985437126    0.4865704064          0.4385
H740       H    0.4319551008    1.2892595204    0.4881193752          0.4401
H741       H    0.4481790089    1.3392014858    0.5256722541         -0.5309
H742       H    0.5419233530    1.3036219280    0.4946477240          0.4445
H743       H    0.5090043348    1.3564737618    0.4700877947          0.4238
H744       H    0.5303938309    1.3139032296    0.5430748219         -0.5167
H745       H    0.4723880942    1.2801158950    0.5417946903         -0.5167
C746       C    0.4010138270    1.2048908304    0.5527773230         -0.5059
H747       H    0.3805170751    1.1816108852    0.5472971259         -0.5097
H748       H    0.3850796005    1.2279444401    0.5671246907         -0.4948
H749       H    0.4230155705    1.1942622889    0.5726260748         -0.4898
H750       H    0.4173857437    1.2506509944    0.5165126304         -0.5361
H751       H    0.4006364341    1.2118993630    0.4904202549          0.4438
C698       C    0.5000000000    0.6476628775    0.0000000000          0.4525
C699       C    0.5236256736    0.6655658431   -0.0257336406          0.4545
C700       C    0.5235964545    0.7049021867   -0.0324635546          0.4577
C701       C    0.5015090410    0.7305310135   -0.0118054061          0.4568
C702       C    0.4783860423    0.7121417262    0.0137988704          0.4546
C703       C    0.4773338275    0.6730635618    0.0190480670          0.4529
C704       C    0.5011740496    0.7777554146   -0.0193665806          0.4605
C705       C    0.5494273062    0.7195597734   -0.0656327592         -0.5369
Cl706     Cl    0.5546134387    0.6362001309   -0.0520717845           0.454
Br707     Br    0.4429363418    0.6544195601    0.0569425943          0.4494
H708       H    0.4591940596    0.7298417915    0.0311316785          0.4543
C709       C    0.4769465665    0.8113073105    0.0021330011          0.4601
C710       C    0.5000000000    0.8523371225    0.0000000000           0.448
N711       N    0.5310556933    0.8397779670   -0.0265507527          0.4472
N712       N    0.5386405680    0.7985437126   -0.0173946101          0.4385
H713       H    0.5580560767    0.7892595204   -0.0374265884          0.4401
H714       H    0.5206624621    0.8392014858   -0.0540142796         -0.5309
H715       H    0.4728265970    0.8036219280    0.0323700564          0.4445
H716       H    0.5136738942    0.8564737618    0.0280863435          0.4238
H717       H    0.4484491414    0.8139032296   -0.0110333230         -0.5167
H718       H    0.4919382525    0.7801158950   -0.0494390706         -0.5167
C719       C    0.5369320791    0.7048908304   -0.1059232260         -0.5059
H720       H    0.5557097594    0.6816108852   -0.1157998712         -0.5097
H721       H    0.5389079623    0.7279444401   -0.1272736925         -0.4948
H722       H    0.5073021264    0.6942622889   -0.1055832755         -0.4898
H723       H    0.5495015158    0.7506509944   -0.0681717115         -0.5361
H724       H    0.5795073104    0.7118993630   -0.0603612238          0.4438
C671       C    0.5000000000    1.1476628775    0.0000000000          0.4525
C672       C    0.5236241867    1.1655658431   -0.0257350057          0.4545
C673       C    0.5235945787    1.2049021867   -0.0324649180          0.4577
C674       C    0.5015083589    1.2305310135   -0.0118054933          0.4568
C675       C    0.4783868396    1.2121417262    0.0138001192          0.4546
C676       C    0.4773349282    1.1730635618    0.0190493766          0.4529
C677       C    0.5011729306    1.2777554146   -0.0193666484          0.4605
C678       C    0.5494235139    1.2195597734   -0.0656356150         -0.5369
Cl679     Cl    0.5546104299    1.1362001309   -0.0520749399           0.454
Br680     Br    0.4429396320    1.1544195601    0.0569458913          0.4494
H681       H    0.4591958584    1.2298417915    0.0311340362          0.4543
C682       C    0.4769466898    1.3113073105    0.0021343331          0.4601
C683       C    0.5000000000    1.3523371225    0.0000000000           0.448
N684       N    0.5310541592    1.3397779670   -0.0265525470          0.4472
N685       N    0.5386395628    1.2985437126   -0.0173968427          0.4385
H686       H    0.5580539141    1.2892595204   -0.0374299428          0.4401
H687       H    0.5206593412    1.3392014858   -0.0540154734         -0.5309
H688       H    0.4728284674    1.3036219280    0.0323716264          0.4445
H689       H    0.5136755170    1.3564737618    0.0280855533          0.4238
H690       H    0.4484485040    1.3139032296   -0.0110303444         -0.5167
H691       H    0.4919353959    1.2801158950   -0.0494386047         -0.5167
C692       C    0.5369259589    1.2048908304   -0.1059253597         -0.5059
H693       H    0.5557030684    1.1816108852   -0.1158030899         -0.5097
H694       H    0.5389006084    1.2279444401   -0.1272759404         -0.4948
H695       H    0.5072960258    1.1942622889   -0.1055836973         -0.4898
H696       H    0.5494975768    1.2506509944   -0.0681745715         -0.5361
H697       H    0.5795038226    1.2118993630   -0.0603658176          0.4438
C644       C    0.5000000000    1.0000000000   -0.3523371225          0.4525
C645       C    0.5028825378    0.9651850077   -0.3344341569          0.4545
C646       C    0.5078472849    0.9606414538   -0.2950978133          0.4577
C647       C    0.5076506278    0.9908833826   -0.2694689865          0.4568
C648       C    0.5045221691    1.0252412753   -0.2878582738          0.4546
C649       C    0.5013789625    1.0295750350   -0.3269364382          0.4529
C650       C    0.5134335696    0.9860006413   -0.2222445854          0.4605
C651       C    0.5146974265    0.9191624881   -0.2804402266         -0.5369
Cl652     Cl    0.5012154046    0.9245505387   -0.3637998691           0.454
Br653     Br    0.4968677075    1.0805537639   -0.3455804399          0.4494
H654       H    0.5048048432    1.0511000946   -0.2701582085          0.4543
C655       C    0.5140703023    1.0183857848   -0.1886926895          0.4601
C656       C    0.5000000000    1.0000000000   -0.1476628775           0.448
N657       N    0.4984430081    0.9591714030   -0.1602220330          0.4472
N658       N    0.4865704064    0.9598090561   -0.2014562874          0.4385
H659       H    0.4881193752    0.9319551008   -0.2107404796          0.4401
H660       H    0.5256722541    0.9481790089   -0.1607985142         -0.5309
H661       H    0.4946477240    1.0419233530   -0.1963780720          0.4445
H662       H    0.4700877947    1.0090043348   -0.1435262382          0.4238
H663       H    0.5430748219    1.0303938309   -0.1860967704         -0.5167
H664       H    0.5417946903    0.9723880942   -0.2198841050         -0.5167
C665       C    0.5527773230    0.9010138270   -0.2951091696         -0.5059
H666       H    0.5472971259    0.8805170751   -0.3183891148         -0.5097
H667       H    0.5671246907    0.8850796005   -0.2720555599         -0.4948
H668       H    0.5726260748    0.9230155705   -0.3057377111         -0.4898
H669       H    0.5165126304    0.9173857437   -0.2493490056         -0.5361
H670       H    0.4904202549    0.9006364341   -0.2881006370          0.4438
C617       C    0.5000000000    1.0000000000    0.1476628775          0.4525
C618       C    0.4651850077    0.9971174622    0.1655658431          0.4545
C619       C    0.4606414538    0.9921527151    0.2049021867          0.4577
C620       C    0.4908833826    0.9923493722    0.2305310135          0.4568
C621       C    0.5252412753    0.9954778309    0.2121417262          0.4546
C622       C    0.5295750350    0.9986210375    0.1730635618          0.4529
C623       C    0.4860006413    0.9865664304    0.2777554146          0.4605
C624       C    0.4191624881    0.9853025735    0.2195597734         -0.5369
Cl625     Cl    0.4245505387    0.9987845954    0.1362001309           0.454
Br626     Br    0.5805537639    1.0031322925    0.1544195601          0.4494
H627       H    0.5511000946    0.9951951568    0.2298417915          0.4543
C628       C    0.5183857848    0.9859296977    0.3113073105          0.4601
C629       C    0.5000000000    1.0000000000    0.3523371225           0.448
N630       N    0.4591714030    1.0015569919    0.3397779670          0.4472
N631       N    0.4598090561    1.0134295936    0.2985437126          0.4385
H632       H    0.4319551008    1.0118806248    0.2892595204          0.4401
H633       H    0.4481790089    0.9743277459    0.3392014858         -0.5309
H634       H    0.5419233530    1.0053522760    0.3036219280          0.4445
H635       H    0.5090043348    1.0299122053    0.3564737618          0.4238
H636       H    0.5303938309    0.9569251781    0.3139032296         -0.5167
H637       H    0.4723880942    0.9582053097    0.2801158950         -0.5167
C638       C    0.4010138270    0.9472226770    0.2048908304         -0.5059
H639       H    0.3805170751    0.9527028741    0.1816108852         -0.5097
H640       H    0.3850796005    0.9328753093    0.2279444401         -0.4948
H641       H    0.4230155705    0.9273739252    0.1942622889         -0.4898
H642       H    0.4173857437    0.9834873696    0.2506509944         -0.5361
H643       H    0.4006364341    1.0095797451    0.2118993630          0.4438
C590       C    0.8523371225    0.5000000000    0.5000000000          0.4525
C591       C    0.8344341569    0.4706652884    0.5189701716          0.4545
C592       C    0.7950978133    0.4690022258    0.5254914306          0.4577
C593       C    0.7694689865    0.4955724889    0.5110472605          0.4568
C594       C    0.7878582738    0.5243881476    0.4920759701          0.4546
C595       C    0.8269364382    0.5267258053    0.4872596876          0.4529
C596       C    0.7222445854    0.4939964744    0.5184499463          0.4605
C597       C    0.7804402266    0.4356644257    0.5511043203         -0.5369
Cl598     Cl    0.8637998691    0.4340528515    0.5366752236           0.454
Br599     Br    0.8455804399    0.5695428466    0.4592260791          0.4494
H600       H    0.7701582085    0.5473201938    0.4801227407          0.4543
C601       C    0.6886926895    0.5228495879    0.5037291855          0.4601
C602       C    0.6476628775    0.5000000000    0.5000000000           0.448
N603       N    0.6602220330    0.4632683827    0.5178937655          0.4472
N604       N    0.7014562874    0.4582280439    0.5071252811          0.4385
H605       H    0.7107404796    0.4344012975    0.5216348741          0.4401
H606       H    0.6607985142    0.4664259801    0.5470878428         -0.5309
H607       H    0.6963780720    0.5344364220    0.4754980159          0.4445
H608       H    0.6435262382    0.4938235578    0.4693786082          0.4238
H609       H    0.6860967704    0.5471234554    0.5236348300         -0.5167
H610       H    0.7198841050    0.4953781083    0.5498783680         -0.5167
C611       C    0.7951091696    0.4376329226    0.5932419215         -0.5059
H612       H    0.8183891148    0.4169757447    0.5980824168         -0.5097
H613       H    0.7720555599    0.4303547137    0.6134105657         -0.4948
H614       H    0.8057377111    0.4663973299    0.6003594026         -0.4898
H615       H    0.7493490056    0.4349545152    0.5535431341         -0.5361
H616       H    0.7881006370    0.4078746751    0.5384423498          0.4438
C563       C    1.1476628775    0.5000000000    0.5000000000          0.4525
C564       C    1.1655658431    0.5327769642    0.4879143337          0.4545
C565       C    1.2049021867    0.5389918090    0.4904966390          0.4577
C566       C    1.2305310135    0.5114943151    0.5030863474          0.4568
C567       C    1.2121417262    0.4790278875    0.5147561001          0.4546
C568       C    1.1730635618    0.4737722669    0.5137364568          0.4529
C569       C    1.2777554146    0.5183620724    0.5062671473          0.4605
C570       C    1.2195597734    0.5794848009    0.4791941328         -0.5369
Cl571     Cl    1.1362001309    0.5689084680    0.4692474153           0.454
Br572     Br    1.1544195601    0.4256551553    0.5311699247          0.4494
H573       H    1.2298417915    0.4557060763    0.5259297995          0.4543
C574       C    1.3113073105    0.4892735957    0.5205171816          0.4601
C575       C    1.3523371225    0.5000000000    0.5000000000           0.448
N576       N    1.3397779670    0.5363539828    0.4813509654          0.4472
N577       N    1.2985437126    0.5307633986    0.4708576038          0.4385
H578       H    1.2892595204    0.5566671208    0.4605019625          0.4401
H579       H    1.3392014858    0.5578146861    0.5013934898         -0.5309
H580       H    1.3036219280    0.4597365596    0.5128479471          0.4445
H581       H    1.3564737618    0.4792087519    0.4766860112          0.4238
H582       H    1.3139032296    0.4906337908    0.5518796623         -0.5167
H583       H    1.2801158950    0.5426758294    0.5262295075         -0.5167
C584       C    1.2048908304    0.6120137837    0.5060514910         -0.5059
H585       H    1.1816108852    0.6282804866    0.4924300458         -0.5097
H586       H    1.2279444401    0.6325156244    0.5123301104         -0.4948
H587       H    1.1942622889    0.6004491241    0.5333335055         -0.4898
H588       H    1.2506509944    0.5818617982    0.4800894926         -0.5361
H589       H    1.2118993630    0.5860290747    0.4493651500          0.4438
C536       C    0.6476628775    0.5000000000    0.0000000000          0.4525
C537       C    0.6655658431    0.5107412579    0.0332418124          0.4545
C538       C    0.7049021867    0.5079080798    0.0393463761          0.4577
C539       C    0.7305310135    0.4964482642    0.0113591369          0.4568
C540       C    0.7121417262    0.4861099328   -0.0215554639          0.4546
C541       C    0.6730635618    0.4873426933   -0.0267652165          0.4529
C542       C    0.7777554146    0.4929905068    0.0180917065          0.4605
C543       C    0.7195597734    0.5175526983    0.0802659359         -0.5369
Cl544     Cl    0.6362001309    0.5279217444    0.0701033138           0.454
Br545     Br    0.6544195601    0.4718825828   -0.0755521739          0.4494
H546       H    0.7298417915    0.4758949553   -0.0453128348          0.4543
C547       C    0.8113073105    0.4799365126   -0.0115527903          0.4601
C548       C    0.8523371225    0.5000000000    0.0000000000           0.448
N549       N    0.8397779670    0.5171535602    0.0370830679          0.4472
N550       N    0.7985437126    0.5278658217    0.0319243157          0.4385
H551       H    0.7892595204    0.5371583066    0.0582281530          0.4401
H552       H    0.8392014858    0.4962539615    0.0577100246         -0.5309
H553       H    0.8036219280    0.4888018765   -0.0407531154          0.4445
H554       H    0.8564737618    0.5241410967   -0.0198248713          0.4238
H555       H    0.8139032296    0.4485446576   -0.0114705264         -0.5167
H556       H    0.7801158950    0.4720548546    0.0415726151         -0.5167
C557       C    0.7048908304    0.4893933127    0.1116745560         -0.5059
H558       H    0.6816108852    0.5023412285    0.1284823183         -0.5097
H559       H    0.7279444401    0.4822852445    0.1319037898         -0.4948
H560       H    0.6942622889    0.4626047271    0.0990088011         -0.4898
H561       H    0.7506509944    0.5165613104    0.0826045114         -0.5361
H562       H    0.7118993630    0.5470905265    0.0880191573          0.4438
C509       C    1.1476628775    0.5000000000    0.0000000000          0.4525
C510       C    1.1655658431    0.5181930163   -0.0298229252          0.4545
C511       C    1.2049021867    0.5246683370   -0.0316567243          0.4577
C512       C    1.2305310135    0.5109271395   -0.0047161893          0.4568
C513       C    1.2121417262    0.4927193695    0.0245878916          0.4546
C514       C    1.1730635618    0.4879661582    0.0270512640          0.4529
C515       C    1.2777554146    0.5182858695   -0.0064861249          0.4605
C516       C    1.2195597734    0.5493966198   -0.0656558575         -0.5369
Cl517     Cl    1.1362001309    0.5349301673   -0.0668878302           0.454
Br518     Br    1.1544195601    0.4610670071    0.0705899582          0.4494
H519       H    1.2298417915    0.4813726789    0.0478260294          0.4543
C520       C    1.3113073105    0.5043281461    0.0227437385          0.4601
C521       C    1.3523371225    0.5000000000    0.0000000000           0.448
N522       N    1.3397779670    0.5169226686   -0.0371890017          0.4472
N523       N    1.2985437126    0.5060254932   -0.0419447182          0.4385
H524       H    1.2892595204    0.5199041619   -0.0661444018          0.4401
H525       H    1.3392014858    0.5461896194   -0.0347994081         -0.5309
H526       H    1.3036219280    0.4764110997    0.0350681931          0.4445
H527       H    1.3564737618    0.4692269236   -0.0053699016          0.4238
H528       H    1.3139032296    0.5248645838    0.0464863174         -0.5167
H529       H    1.2801158950    0.5497397400   -0.0059305771         -0.5167
C530       C    1.2048908304    0.5915713906   -0.0647949743         -0.5059
H531       H    1.1816108852    0.5958675614   -0.0855721808         -0.5097
H532       H    1.2279444401    0.6115418796   -0.0726004920         -0.4948
H533       H    1.1942622889    0.5994420424   -0.0362274664         -0.4898
H534       H    1.2506509944    0.5518159430   -0.0664295895         -0.5361
H535       H    1.2118993630    0.5360089957   -0.0931033940          0.4438
C482       C    1.0000000000    0.5000000000   -0.3523371225          0.4525
C483       C    1.0348149923    0.5028825378   -0.3344341569          0.4545
C484       C    1.0393585462    0.5078472849   -0.2950978133          0.4577
C485       C    1.0091166174    0.5076506278   -0.2694689865          0.4568
C486       C    0.9747587247    0.5045221691   -0.2878582738          0.4546
C487       C    0.9704249650    0.5013789625   -0.3269364382          0.4529
C488       C    1.0139993587    0.5134335696   -0.2222445854          0.4605
C489       C    1.0808375119    0.5146974265   -0.2804402266         -0.5369
Cl490     Cl    1.0754494613    0.5012154046   -0.3637998691           0.454
Br491     Br    0.9194462361    0.4968677075   -0.3455804399          0.4494
H492       H    0.9488999054    0.5048048432   -0.2701582085          0.4543
C493       C    0.9816142152    0.5140703023   -0.1886926895          0.4601
C494       C    1.0000000000    0.5000000000   -0.1476628775           0.448
N495       N    1.0408285970    0.4984430081   -0.1602220330          0.4472
N496       N    1.0401909439    0.4865704064   -0.2014562874          0.4385
H497       H    1.0680448992    0.4881193752   -0.2107404796          0.4401
H498       H    1.0518209911    0.5256722541   -0.1607985142         -0.5309
H499       H    0.9580766470    0.4946477240   -0.1963780720          0.4445
H500       H    0.9909956652    0.4700877947   -0.1435262382          0.4238
H501       H    0.9696061691    0.5430748219   -0.1860967704         -0.5167
H502       H    1.0276119058    0.5417946903   -0.2198841050         -0.5167
C503       C    1.0989861730    0.5527773230   -0.2951091696         -0.5059
H504       H    1.1194829249    0.5472971259   -0.3183891148         -0.5097
H505       H    1.1149203995    0.5671246907   -0.2720555599         -0.4948
H506       H    1.0769844295    0.5726260748   -0.3057377111         -0.4898
H507       H    1.0826142563    0.5165126304   -0.2493490056         -0.5361
H508       H    1.0993635659    0.4904202549   -0.2881006370          0.4438
C455       C    1.0000000000    0.5000000000    0.1476628775          0.4525
C456       C    0.9651850077    0.4971174622    0.1655658431          0.4545
C457       C    0.9606414538    0.4921527151    0.2049021867          0.4577
C458       C    0.9908833826    0.4923493722    0.2305310135          0.4568
C459       C    1.0252412753    0.4954778309    0.2121417262          0.4546
C460       C    1.0295750350    0.4986210375    0.1730635618          0.4529
C461       C    0.9860006413    0.4865664304    0.2777554146          0.4605
C462       C    0.9191624881    0.4853025735    0.2195597734         -0.5369
Cl463     Cl    0.9245505387    0.4987845954    0.1362001309           0.454
Br464     Br    1.0805537639    0.5031322925    0.1544195601          0.4494
H465       H    1.0511000946    0.4951951568    0.2298417915          0.4543
C466       C    1.0183857848    0.4859296977    0.3113073105          0.4601
C467       C    1.0000000000    0.5000000000    0.3523371225           0.448
N468       N    0.9591714030    0.5015569919    0.3397779670          0.4472
N469       N    0.9598090561    0.5134295936    0.2985437126          0.4385
H470       H    0.9319551008    0.5118806248    0.2892595204          0.4401
H471       H    0.9481790089    0.4743277459    0.3392014858         -0.5309
H472       H    1.0419233530    0.5053522760    0.3036219280          0.4445
H473       H    1.0090043348    0.5299122053    0.3564737618          0.4238
H474       H    1.0303938309    0.4569251781    0.3139032296         -0.5167
H475       H    0.9723880942    0.4582053097    0.2801158950         -0.5167
C476       C    0.9010138270    0.4472226770    0.2048908304         -0.5059
H477       H    0.8805170751    0.4527028741    0.1816108852         -0.5097
H478       H    0.8850796005    0.4328753093    0.2279444401         -0.4948
H479       H    0.9230155705    0.4273739252    0.1942622889         -0.4898
H480       H    0.9173857437    0.4834873696    0.2506509944         -0.5361
H481       H    0.9006364341    0.5095797451    0.2118993630          0.4438
C428       C    1.0000000000   -0.1476628775    0.5000000000          0.4525
C429       C    1.0348149923   -0.1655658431    0.5028825378          0.4545
C430       C    1.0393585462   -0.2049021867    0.5078472849          0.4577
C431       C    1.0091166174   -0.2305310135    0.5076506278          0.4568
C432       C    0.9747587247   -0.2121417262    0.5045221691          0.4546
C433       C    0.9704249650   -0.1730635618    0.5013789625          0.4529
C434       C    1.0139993587   -0.2777554146    0.5134335696          0.4605
C435       C    1.0808375119   -0.2195597734    0.5146974265         -0.5369
Cl436     Cl    1.0754494613   -0.1362001309    0.5012154046           0.454
Br437     Br    0.9194462361   -0.1544195601    0.4968677075          0.4494
H438       H    0.9488999054   -0.2298417915    0.5048048432          0.4543
C439       C    0.9816142152   -0.3113073105    0.5140703023          0.4601
C440       C    1.0000000000   -0.3523371225    0.5000000000           0.448
N441       N    1.0408285970   -0.3397779670    0.4984430081          0.4472
N442       N    1.0401909439   -0.2985437126    0.4865704064          0.4385
H443       H    1.0680448992   -0.2892595204    0.4881193752          0.4401
H444       H    1.0518209911   -0.3392014858    0.5256722541         -0.5309
H445       H    0.9580766470   -0.3036219280    0.4946477240          0.4445
H446       H    0.9909956652   -0.3564737618    0.4700877947          0.4238
H447       H    0.9696061691   -0.3139032296    0.5430748219         -0.5167
H448       H    1.0276119058   -0.2801158950    0.5417946903         -0.5167
C449       C    1.0989861730   -0.2048908304    0.5527773230         -0.5059
H450       H    1.1194829249   -0.1816108852    0.5472971259         -0.5097
H451       H    1.1149203995   -0.2279444401    0.5671246907         -0.4948
H452       H    1.0769844295   -0.1942622889    0.5726260748         -0.4898
H453       H    1.0826142563   -0.2506509944    0.5165126304         -0.5361
H454       H    1.0993635659   -0.2118993630    0.4904202549          0.4438
C401       C    1.0000000000    0.3523371225    0.5000000000          0.4525
C402       C    1.0348149923    0.3344341569    0.5028825378          0.4545
C403       C    1.0393585462    0.2950978133    0.5078472849          0.4577
C404       C    1.0091166174    0.2694689865    0.5076506278          0.4568
C405       C    0.9747587247    0.2878582738    0.5045221691          0.4546
C406       C    0.9704249650    0.3269364382    0.5013789625          0.4529
C407       C    1.0139993587    0.2222445854    0.5134335696          0.4605
C408       C    1.0808375119    0.2804402266    0.5146974265         -0.5369
Cl409     Cl    1.0754494613    0.3637998691    0.5012154046           0.454
Br410     Br    0.9194462361    0.3455804399    0.4968677075          0.4494
H411       H    0.9488999054    0.2701582085    0.5048048432          0.4543
C412       C    0.9816142152    0.1886926895    0.5140703023          0.4601
C413       C    1.0000000000    0.1476628775    0.5000000000           0.448
N414       N    1.0408285970    0.1602220330    0.4984430081          0.4472
N415       N    1.0401909439    0.2014562874    0.4865704064          0.4385
H416       H    1.0680448992    0.2107404796    0.4881193752          0.4401
H417       H    1.0518209911    0.1607985142    0.5256722541         -0.5309
H418       H    0.9580766470    0.1963780720    0.4946477240          0.4445
H419       H    0.9909956652    0.1435262382    0.4700877947          0.4238
H420       H    0.9696061691    0.1860967704    0.5430748219         -0.5167
H421       H    1.0276119058    0.2198841050    0.5417946903         -0.5167
C422       C    1.0989861730    0.2951091696    0.5527773230         -0.5059
H423       H    1.1194829249    0.3183891148    0.5472971259         -0.5097
H424       H    1.1149203995    0.2720555599    0.5671246907         -0.4932
H425       H    1.0769844295    0.3057377111    0.5726260748         -0.4898
H426       H    1.0826142563    0.2493490056    0.5165126304         -0.5361
H427       H    1.0993635659    0.2881006370    0.4904202549          0.4438
C374       C    0.8523371225   -0.0000000000    0.5000000000          0.4525
C375       C    0.8344341569    0.0295692686    0.5186024479          0.4545
C376       C    0.7950978133    0.0361837791    0.5173611396          0.4577
C377       C    0.7694689865    0.0118840966    0.4993572967          0.4568
C378       C    0.7878582738   -0.0174673552    0.4812259888          0.4546
C379       C    0.8269364382   -0.0228202293    0.4811367722          0.4529
C380       C    0.7222445854    0.0192611708    0.4976654473          0.4605
C381       C    0.7804402266    0.0734642441    0.5367929683         -0.5369
Cl382     Cl    0.8637998691    0.0610596178    0.5443375856           0.454
Br383     Br    0.8455804399   -0.0662921842    0.4541298959          0.4494
H384       H    0.7701582085   -0.0379744321    0.4654710456          0.4543
C385       C    0.6886926895   -0.0062517632    0.4777081641          0.4601
C386       C    0.6476628775   -0.0000000000    0.5000000000           0.448
N387       N    0.6602220330    0.0317117176    0.5257636474          0.4472
N388       N    0.7014562874    0.0240720309    0.5348741061          0.4385
H389       H    0.7107404796    0.0472743785    0.5503625922          0.4401
H390       H    0.6607985142    0.0568531800    0.5105922455         -0.5309
H391       H    0.6963780720   -0.0367362905    0.4791036045          0.4445
H392       H    0.6435262382   -0.0251629903    0.5185105913          0.4238
H393       H    0.6860967704    0.0015645415    0.4473048632         -0.5167
H394       H    0.7198841050    0.0471774407    0.4831624656         -0.5167
C395       C    0.7951091696    0.1108439976    0.5172428674         -0.5059
H396       H    0.8183891148    0.1239422886    0.5339337083         -0.5097
H397       H    0.7720555599    0.1322010578    0.5153395777         -0.4948
H398       H    0.8057377111    0.1051710115    0.4881590765         -0.4898
H399       H    0.7493490056    0.0759750157    0.5364085058         -0.5361
H400       H    0.7881006370    0.0736986678    0.5673304990          0.4438
C347       C    1.1476628775   -0.0000000000    0.5000000000          0.4525
C348       C    1.1655658431   -0.0135995637    0.4678216753          0.4545
C349       C    1.2049021867   -0.0113096010    0.4614932737          0.4577
C350       C    1.2305310135    0.0025474965    0.4883743783          0.4568
C351       C    1.2121417262    0.0157171310    0.5202618801          0.4546
C352       C    1.1730635618    0.0149434448    0.5255592975          0.4529
C353       C    1.2777554146    0.0054048861    0.4813658903          0.4605
C354       C    1.2195597734   -0.0244863310    0.4215708136         -0.5369
Cl355     Cl    1.1362001309   -0.0339295155    0.4325990624           0.454
Br356     Br    1.1544195601    0.0345996735    0.5728119683          0.4494
H357       H    1.2298417915    0.0279652194    0.5430378053          0.4543
C358       C    1.3113073105    0.0209946277    0.5097588984          0.4601
C359       C    1.3523371225   -0.0000000000    0.5000000000           0.448
N360       N    1.3397779670   -0.0203224523    0.4645543164          0.4472
N361       N    1.2985437126   -0.0305439647    0.4706276972          0.4385
H362       H    1.2892595204   -0.0420951699    0.4452345526          0.4401
H363       H    1.3392014858   -0.0013015065    0.4421831700         -0.5309
H364       H    1.3036219280    0.0147097985    0.5396211586          0.4445
H365       H    1.3564737618   -0.0223200468    0.5218548297          0.4238
H366       H    1.3139032296    0.0522596853    0.5069390582         -0.5167
H367       H    1.2801158950    0.0242128361    0.4561485229         -0.5167
C368       C    1.2048908304    0.0008263977    0.3878259150         -0.5059
H369       H    1.1816108852   -0.0135380938    0.3722114736         -0.5097
H370       H    1.2279444401    0.0061430554    0.3670538259         -0.4948
H371       H    1.1942622889    0.0286175657    0.3981069970         -0.4898
H372       H    1.2506509944   -0.0237026834    0.4191546841         -0.5361
H373       H    1.2118993630   -0.0545878109    0.4164233248          0.4438
C320       C   -0.0000000000   -0.3523371225    0.0000000000          0.4525
C321       C    0.0145886732   -0.3344341569    0.0317421381          0.4545
C322       C    0.0208057694   -0.2950978133    0.0343190181          0.4577
C323       C    0.0103021539   -0.2694689865    0.0059590640          0.4568
C324       C   -0.0043617164   -0.2878582738   -0.0252694959          0.4546
C325       C   -0.0087950029   -0.3269364382   -0.0282706943          0.4529
C326       C    0.0174040766   -0.2222445854    0.0085756023          0.4605
C327       C    0.0413977381   -0.2804402266    0.0709714376         -0.5369
Cl328     Cl    0.0268863562   -0.3637998691    0.0705068952           0.454
Br329     Br   -0.0304298323   -0.3455804399   -0.0746508235          0.4494
H330       H   -0.0129192183   -0.2701582085   -0.0496729301          0.4543
C331       C    0.0069525575   -0.1886926895   -0.0220833067          0.4601
C332       C   -0.0000000000   -0.1476628775    0.0000000000           0.448
N333       N    0.0124674523   -0.1602220330    0.0389096542          0.4472
N334       N    0.0010897757   -0.2014562874    0.0423612835          0.4385
H335       H    0.0120497547   -0.2107404796    0.0680151525          0.4401
H336       H    0.0418133037   -0.1607985142    0.0399515629         -0.5309
H337       H   -0.0193356208   -0.1963780720   -0.0375812207          0.4445
H338       H   -0.0311894614   -0.1435262382    0.0017422881          0.4238
H339       H    0.0301192321   -0.1860967704   -0.0432672751         -0.5167
H340       H    0.0487078915   -0.2198841050    0.0116942202         -0.5167
C341       C    0.0833848413   -0.2951091696    0.0750378339         -0.5059
H342       H    0.0852271578   -0.3183891148    0.0961744199         -0.5097
H343       H    0.1023080678   -0.2720555599    0.0851203946         -0.4948
H344       H    0.0945352822   -0.3057377111    0.0475839210         -0.4898
H345       H    0.0437102459   -0.2493490056    0.0720221959         -0.5361
H346       H    0.0248987051   -0.2881006370    0.0966692517          0.4438
C293       C   -0.0000000000    0.1476628775    0.0000000000          0.4525
C294       C    0.0339050062    0.1655658431    0.0084168444          0.4545
C295       C    0.0397990401    0.2049021867    0.0051683124          0.4577
C296       C    0.0110863398    0.2305310135   -0.0043287282          0.4568
C297       C   -0.0224643753    0.2121417262   -0.0123662377          0.4546
C298       C   -0.0275764104    0.1730635618   -0.0107761691          0.4529
C299       C    0.0175636860    0.2777554146   -0.0082437717          0.4605
C300       C    0.0812875810    0.2195597734    0.0119602194         -0.5369
Cl301     Cl    0.0718663150    0.1362001309    0.0230071987           0.454
Br302     Br   -0.0773156626    0.1544195601   -0.0228256095          0.4494
H303       H   -0.0468712509    0.2298417915   -0.0209139192          0.4543
C304       C   -0.0129125435    0.3113073105   -0.0192165738          0.4601
C305       C   -0.0000000000    0.3523371225    0.0000000000           0.448
N306       N    0.0381804830    0.3397779670    0.0145481708          0.4472
N307       N    0.0337748422    0.2985437126    0.0255915218          0.4385
H308       H    0.0606582973    0.2892595204    0.0330428285          0.4401
H309       H    0.0573128371    0.3392014858   -0.0077277713         -0.5309
H310       H   -0.0414299213    0.3036219280   -0.0083532031          0.4445
H311       H   -0.0181080363    0.3564737618    0.0254542157          0.4238
H312       H   -0.0150012515    0.3139032296   -0.0505389720         -0.5167
H313       H    0.0395406672    0.2801158950   -0.0307530342         -0.5167
C314       C    0.1106737688    0.2048908304   -0.0183036928         -0.5059
H315       H    0.1283366568    0.1816108852   -0.0065490434         -0.5097
H316       H    0.1303630488    0.2279444401   -0.0267936154         -0.4948
H317       H    0.0961858783    0.1942622889   -0.0441523039         -0.4898
H318       H    0.0835520032    0.2506509944    0.0108094901         -0.5361
H319       H    0.0910648102    0.2118993630    0.0408911981          0.4438
C266       C   -0.3523371225   -0.0000000000    0.0000000000          0.4525
C267       C   -0.3344341569    0.0082052367    0.0339568374          0.4545
C268       C   -0.2950978133    0.0049200104    0.0398304976          0.4577
C269       C   -0.2694689865   -0.0043977825    0.0110591287          0.4568
C270       C   -0.2878582738   -0.0122259011   -0.0225410589          0.4546
C271       C   -0.3269364382   -0.0106039829   -0.0276430783          0.4529
C272       C   -0.2222445854   -0.0083531450    0.0175119333          0.4605
C273       C   -0.2804402266    0.0114530475    0.0813605886         -0.5369
Cl274     Cl   -0.3637998691    0.0225585665    0.0720083988           0.454
Br275     Br   -0.3455804399   -0.0223429967   -0.0774565080          0.4494
H276       H   -0.2701582085   -0.0206212061   -0.0470007664          0.4543
C277       C   -0.1886926895   -0.0191356728   -0.0130321340          0.4601
C278       C   -0.1476628775   -0.0000000000    0.0000000000           0.448
N279       N   -0.1602220330    0.0143097803    0.0382704683          0.4472
N280       N   -0.2014562874    0.0253803917    0.0339337836          0.4385
H281       H   -0.2107404796    0.0326638985    0.0608631850          0.4401
H282       H   -0.1607985142   -0.0080850449    0.0572635294         -0.5309
H283       H   -0.1963780720   -0.0080946684   -0.0414812093          0.4445
H284       H   -0.1435262382    0.0255666491   -0.0179489423          0.4238
H285       H   -0.1860967704   -0.0504444359   -0.0153161394         -0.5167
H286       H   -0.2198841050   -0.0309990264    0.0393481110         -0.5167
C287       C   -0.2951091696   -0.0189935392    0.1105574681         -0.5059
H288       H   -0.3183891148   -0.0073492707    0.1282933189         -0.5097
H289       H   -0.2720555599   -0.0276060864    0.1301934189         -0.4948
H290       H   -0.3057377111   -0.0447512958    0.0959086578         -0.4898
H291       H   -0.2493490056    0.0102882188    0.0836177904         -0.5361
H292       H   -0.2881006370    0.0403224892    0.0913180519          0.4438
C239       C    0.3523371225   -0.0000000000    0.0000000000          0.4525
C240       C    0.3344341569    0.0263638513   -0.0229202980          0.4545
C241       C    0.2950978133    0.0270899258   -0.0296109939          0.4577
C242       C    0.2694689865    0.0028241012   -0.0115615428          0.4568
C243       C    0.2878582738   -0.0230257345    0.0112866091          0.4546
C244       C    0.3269364382   -0.0246602748    0.0163845988          0.4529
C245       C    0.2222445854    0.0033396033   -0.0191125584          0.4605
C246       C    0.2804402266    0.0564793150   -0.0596724783         -0.5369
Cl247     Cl    0.3637998691    0.0601111319   -0.0456152413           0.454
Br248     Br    0.3455804399   -0.0630923936    0.0501803748          0.4494
H249       H    0.2701582085   -0.0440413022    0.0263565908          0.4543
C250       C    0.1886926895   -0.0231471878   -0.0004671072          0.4601
C251       C    0.1476628775   -0.0000000000    0.0000000000           0.448
N252       N    0.1602220330    0.0338386351   -0.0228985879          0.4472
N253       N    0.2014562874    0.0403482778   -0.0129492250          0.4385
H254       H    0.2107404796    0.0618888122   -0.0306762528          0.4401
H255       H    0.1607985142    0.0265924929   -0.0513548349         -0.5309
H256       H    0.1963780720   -0.0306337968    0.0291167457          0.4445
H257       H    0.1435262382    0.0104362080    0.0294432273          0.4238
H258       H    0.1860967704   -0.0499873771   -0.0167477572         -0.5167
H259       H    0.2198841050   -0.0024636829   -0.0500314276         -0.5167
C260       C    0.2951091696    0.0485836573   -0.1011105164         -0.5059
H261       H    0.3183891148    0.0683509430   -0.1088179032         -0.5097
H262       H    0.2720555599    0.0529426267   -0.1221044660         -0.4948
H263       H    0.3057377111    0.0191026619   -0.1040972499         -0.4898
H264       H    0.2493490056    0.0568379312   -0.0621870717         -0.5361
H265       H    0.2881006370    0.0857779004   -0.0510591964          0.4438
C212       C   -0.0000000000    0.0000000000   -0.3523371225          0.4525
C213       C    0.0333252987   -0.0104793691   -0.3344341569          0.4545
C214       C    0.0394073812   -0.0075982463   -0.2950978133          0.4577
C215       C    0.0113308392    0.0036410028   -0.2694689865          0.4568
C216       C   -0.0216640877    0.0137200326   -0.2878582738          0.4546
C217       C   -0.0268639794    0.0124463184   -0.3269364382          0.4529
C218       C    0.0180359937    0.0071516270   -0.2222445854          0.4605
C219       C    0.0804015609   -0.0169205993   -0.2804402266         -0.5369
Cl220     Cl    0.0703208401   -0.0273692869   -0.3637998691           0.454
Br221     Br   -0.0757710712    0.0275220804   -0.3455804399          0.4494
H222       H   -0.0455010976    0.0237477640   -0.2701582085          0.4543
C223       C   -0.0117102980    0.0199719656   -0.1886926895          0.4601
C224       C   -0.0000000000    0.0000000000   -0.1476628775           0.448
N225       N    0.0372168892   -0.0168612489   -0.1602220330          0.4472
N226       N    0.0321425838   -0.0276137693   -0.2014562874          0.4385
H227       H    0.0585187229   -0.0366990004   -0.2107404796          0.4401
H228       H    0.0576787633    0.0042000018   -0.1607985142         -0.5309
H229       H   -0.0408399639    0.0108771195   -0.1963780720          0.4445
H230       H   -0.0196343085   -0.0242963372   -0.1435262382          0.4238
H231       H   -0.0118750369    0.0513634961   -0.1860967704         -0.5167
H232       H    0.0413514477    0.0282713857   -0.2198841050         -0.5167
C233       C    0.1115876426    0.0114850467   -0.2951091696         -0.5059
H234       H    0.1284967625   -0.0013302199   -0.3183891148         -0.5097
H235       H    0.1317603218    0.0187520644   -0.2720555599         -0.4948
H236       H    0.0987114994    0.0381731452   -0.3057377111         -0.4898
H237       H    0.0827322636   -0.0159108415   -0.2493490056         -0.5361
H238       H    0.0883869546   -0.0463965085   -0.2881006370          0.4438
C185       C   -0.0000000000    0.0000000000    0.3523371225          0.4525
C186       C    0.0059515576   -0.0344234176    0.3344341569          0.4545
C187       C    0.0022867121   -0.0400680170    0.2950978133          0.4577
C188       C   -0.0051164223   -0.0107455592    0.2694689865          0.4568
C189       C   -0.0107151636    0.0232971514    0.2878582738          0.4546
C190       C   -0.0087608249    0.0282813044    0.3269364382          0.4529
C191       C   -0.0094880832   -0.0169239214    0.2222445854          0.4605
C192       C    0.0060710415   -0.0819381482    0.2804402266         -0.5369
Cl193     Cl    0.0177682510   -0.0733374916    0.3637998691           0.454
Br194     Br   -0.0171944207    0.0787595838    0.3455804399          0.4494
H195       H   -0.0174817113    0.0482565638    0.2701582085          0.4543
C196       C   -0.0182360513    0.0142638328    0.1886926895          0.4601
C197       C   -0.0000000000    0.0000000000    0.1476628775           0.448
N198       N    0.0117588246   -0.0391296384    0.1602220330          0.4472
N199       N    0.0230909587   -0.0355313042    0.2014562874          0.4385
H200       H    0.0285855050   -0.0628818452    0.2107404796          0.4401
H201       H   -0.0118379911   -0.0566069052    0.1607985142         -0.5309
H202       H   -0.0053457903    0.0419241805    0.1963780720          0.4445
H203       H    0.0266930068    0.0162265665    0.1435262382          0.4238
H204       H   -0.0493264816    0.0186043931    0.1860967704         -0.5167
H205       H   -0.0335226140   -0.0372216043    0.2198841050         -0.5167
C206       C   -0.0262319285   -0.1090669253    0.2951091696         -0.5059
H207       H   -0.0157807384   -0.1275309992    0.3183891148         -0.5097
H208       H   -0.0361187059   -0.1280931747    0.2720555599         -0.4948
H209       H   -0.0509692436   -0.0927538966    0.3057377111         -0.4898
H210       H    0.0047601161   -0.0841137540    0.2493490056         -0.5361
H211       H    0.0342221886   -0.0937748983    0.2881006370          0.4438
loop_
_geom_bond_atom_site_label_1
_geom_bond_atom_site_label_2
_geom_bond_distance
_geom_bond_site_symmetry_2
_ccdc_geom_bond_type
Zn1          O5 1.942       .   S
Zn1          O6 1.922       .   S
Zn1         O10 1.922       .   S
Zn1         O17 1.922       .   S
Zn2          O5 1.942       .   S
Zn2          O7 1.922       .   S
Zn2          O9 1.922       .   S
Zn2         O13 1.922       .   S
Zn3          O5 1.942       .   S
Zn3          O8 1.922       .   S
Zn3         O11 1.922       .   S
Zn3         O14 1.922       .   S
Zn4          O5 1.942       .   S
Zn4         O12 1.922       .   S
Zn4         O15 1.922       .   S
Zn4         O16 1.922       .   S
O6          C18 1.304       .   A
O7          C19 1.304       .   A
O8          C20 1.304       .   A
O9          C18 1.304       .   A
O10         C20 1.304       .   A
O11         C19 1.304       .   A
O12         C21 1.304       .   A
O13         C22 1.304       .   A
O14         C21 1.304       .   A
O15         C22 1.304       .   A
O16         C23 1.304       .   A
O17         C23 1.304       .   A
C18        C197 1.540       .   S
C19        C251 1.540       .   S
C20        C332 1.540       .   S
C21        C224 1.540       .   S
C22        C293 1.540       .   S
C23        C278 1.540       .   S
Zn24        O28 1.942       .   S
Zn24        O29 1.922       .   S
Zn24        O33 1.922       .   S
Zn24        O40 1.922       .   S
Zn25        O28 1.942       .   S
Zn25        O30 1.922       .   S
Zn25        O32 1.922       .   S
Zn25        O36 1.922       .   S
Zn26        O28 1.942       .   S
Zn26        O31 1.922       .   S
Zn26        O34 1.922       .   S
Zn26        O37 1.922       .   S
Zn27        O28 1.942       .   S
Zn27        O35 1.922       .   S
Zn27        O38 1.922       .   S
Zn27        O39 1.922       .   S
O29         C41 1.304       .   A
O30         C42 1.304       .   A
O31         C43 1.304       .   A
O32         C41 1.304       .   A
O33         C43 1.304       .   A
O34         C42 1.304       .   A
O35         C44 1.304       .   A
O36         C45 1.304       .   A
O37         C44 1.304       .   A
O38         C45 1.304       .   A
O39         C46 1.304       .   A
O40         C46 1.304       .   A
C41        C185 1.540   1_655   S
C42        C347 1.540       .   S
C43        C413 1.540       .   S
C44        C212 1.540   1_656   S
C45        C428 1.540       .   S
C46        C374 1.540       .   S
Zn47        O51 1.942       .   S
Zn47        O52 1.922       .   S
Zn47        O56 1.922       .   S
Zn47        O63 1.922       .   S
Zn48        O51 1.942       .   S
Zn48        O53 1.922       .   S
Zn48        O55 1.922       .   S
Zn48        O59 1.922       .   S
Zn49        O51 1.942       .   S
Zn49        O54 1.922       .   S
Zn49        O57 1.922       .   S
Zn49        O60 1.922       .   S
Zn50        O51 1.942       .   S
Zn50        O58 1.922       .   S
Zn50        O61 1.922       .   S
Zn50        O62 1.922       .   S
O52         C64 1.304       .   A
O53         C65 1.304       .   A
O54         C66 1.304       .   A
O55         C64 1.304       .   A
O56         C66 1.304       .   A
O57         C65 1.304       .   A
O58         C67 1.304       .   A
O59         C68 1.304       .   A
O60         C67 1.304       .   A
O61         C68 1.304       .   A
O62         C69 1.304       .   A
O63         C69 1.304       .   A
C64        C509 1.540       .   S
C65        C455 1.540       .   S
C66        C320 1.540   1_665   S
C67        C548 1.540       .   S
C68        C305 1.540   1_655   S
C69        C494 1.540       .   S
Zn70        O74 1.942       .   S
Zn70        O75 1.922       .   S
Zn70        O79 1.922       .   S
Zn70        O86 1.922       .   S
Zn71        O74 1.942       .   S
Zn71        O76 1.922       .   S
Zn71        O78 1.922       .   S
Zn71        O82 1.922       .   S
Zn72        O74 1.942       .   S
Zn72        O77 1.922       .   S
Zn72        O80 1.922       .   S
Zn72        O83 1.922       .   S
Zn73        O74 1.942       .   S
Zn73        O81 1.922       .   S
Zn73        O84 1.922       .   S
Zn73        O85 1.922       .   S
O75         C87 1.304       .   A
O76         C88 1.304       .   A
O77         C89 1.304       .   A
O78         C87 1.304       .   A
O79         C89 1.304       .   A
O80         C88 1.304       .   A
O81         C90 1.304       .   A
O82         C91 1.304       .   A
O83         C90 1.304       .   A
O84         C91 1.304       .   A
O85         C92 1.304       .   A
O86         C92 1.304       .   A
C87        C401 1.540       .   S
C88        C482 1.540   1_556   S
C89        C563 1.540       .   S
C90        C440 1.540   1_565   S
C91        C590 1.540       .   S
C92        C467 1.540       .   S
Zn93        O97 1.942       .   S
Zn93        O98 1.922       .   S
Zn93       O102 1.922       .   S
Zn93       O109 1.922       .   S
Zn94        O97 1.942       .   S
Zn94        O99 1.922       .   S
Zn94       O101 1.922       .   S
Zn94       O105 1.922       .   S
Zn95        O97 1.942       .   S
Zn95       O100 1.922       .   S
Zn95       O103 1.922       .   S
Zn95       O106 1.922       .   S
Zn96        O97 1.942       .   S
Zn96       O104 1.922       .   S
Zn96       O107 1.922       .   S
Zn96       O108 1.922       .   S
O98        C110 1.304       .   A
O99        C111 1.304       .   A
O100       C112 1.304       .   A
O101       C110 1.304       .   A
O102       C112 1.304       .   A
O103       C111 1.304       .   A
O104       C113 1.304       .   A
O105       C114 1.304       .   A
O106       C113 1.304       .   A
O107       C114 1.304       .   A
O108       C115 1.304       .   A
O109       C115 1.304       .   A
C110       C239 1.540   1_565   S
C111       C617 1.540       .   S
C112       C710 1.540       .   S
C113       C266 1.540   1_665   S
C114       C671 1.540       .   S
C115       C656 1.540       .   S
Zn116      O120 1.942       .   S
Zn116      O121 1.922       .   S
Zn116      O125 1.922       .   S
Zn116      O132 1.922       .   S
Zn117      O120 1.942       .   S
Zn117      O122 1.922       .   S
Zn117      O124 1.922       .   S
Zn117      O128 1.922       .   S
Zn118      O120 1.942       .   S
Zn118      O123 1.922       .   S
Zn118      O126 1.922       .   S
Zn118      O129 1.922       .   S
Zn119      O120 1.942       .   S
Zn119      O127 1.922       .   S
Zn119      O130 1.922       .   S
Zn119      O131 1.922       .   S
O121       C133 1.304       .   A
O122       C134 1.304       .   A
O123       C135 1.304       .   A
O124       C133 1.304       .   A
O125       C135 1.304       .   A
O126       C134 1.304       .   A
O127       C136 1.304       .   A
O128       C137 1.304       .   A
O129       C136 1.304       .   A
O130       C137 1.304       .   A
O131       C138 1.304       .   A
O132       C138 1.304       .   A
C133       C359 1.540   1_465   S
C134       C629 1.540       .   S
C135       C725 1.540       .   S
C136       C386 1.540   1_565   S
C137       C752 1.540       .   S
C138       C644 1.540   1_556   S
Zn139      O143 1.942       .   S
Zn139      O144 1.922       .   S
Zn139      O148 1.922       .   S
Zn139      O155 1.922       .   S
Zn140      O143 1.942       .   S
Zn140      O145 1.922       .   S
Zn140      O147 1.922       .   S
Zn140      O151 1.922       .   S
Zn141      O143 1.942       .   S
Zn141      O146 1.922       .   S
Zn141      O149 1.922       .   S
Zn141      O152 1.922       .   S
Zn142      O143 1.942       .   S
Zn142      O150 1.922       .   S
Zn142      O153 1.922       .   S
Zn142      O154 1.922       .   S
O144       C156 1.304       .   A
O145       C157 1.304       .   A
O146       C158 1.304       .   A
O147       C156 1.304       .   A
O148       C158 1.304       .   A
O149       C157 1.304       .   A
O150       C159 1.304       .   A
O151       C160 1.304       .   A
O152       C159 1.304       .   A
O153       C160 1.304       .   A
O154       C161 1.304       .   A
O155       C161 1.304       .   A
C156       C521 1.540   1_455   S
C157       C683 1.540   1_545   S
C158       C806 1.540       .   S
C159       C536 1.540       .   S
C160       C791 1.540       .   S
C161       C698 1.540       .   S
Zn162      O166 1.942       .   S
Zn162      O167 1.922       .   S
Zn162      O171 1.922       .   S
Zn162      O178 1.922       .   S
Zn163      O166 1.942       .   S
Zn163      O168 1.922       .   S
Zn163      O170 1.922       .   S
Zn163      O174 1.922       .   S
Zn164      O166 1.942       .   S
Zn164      O169 1.922       .   S
Zn164      O172 1.922       .   S
Zn164      O175 1.922       .   S
Zn165      O166 1.942       .   S
Zn165      O173 1.922       .   S
Zn165      O176 1.922       .   S
Zn165      O177 1.922       .   S
O167       C179 1.304       .   A
O168       C180 1.304       .   A
O169       C181 1.304       .   A
O170       C179 1.304       .   A
O171       C181 1.304       .   A
O172       C180 1.304       .   A
O173       C182 1.304       .   A
O174       C183 1.304       .   A
O175       C182 1.304       .   A
O176       C183 1.304       .   A
O177       C184 1.304       .   A
O178       C184 1.304       .   A
C179       C575 1.540   1_455   S
C180       C818 1.540   1_556   S
C181       C737 1.540   1_545   S
C182       C602 1.540       .   S
C183       C764 1.540       .   S
C184       C779 1.540       .   S
C806       C807 0.032       .   A
C806       C811 0.031       .   A
C807       C808 0.032       .   A
C807      Cl814 0.040       .   A
C808       C809 0.032       .   A
C808       C813 0.036       .   A
C809       C810 0.031       .   A
C809       C812 0.038       .   A
C810       C811 0.032       .   A
C810       H816 0.025       .   A
C811      Br815 0.044       .   A
C812       C817 0.038       .   A
C812       N820 0.035       .   A
C812       H826 0.025       .   A
C813       C827 0.036       .   A
C813       H831 0.025       .   A
C813       H832 0.025       .   A
C817       C818 0.038       .   A
C817       H823 0.025       .   A
C817       H825 0.025       .   A
C818       N819 0.034       .   A
C818       H824 0.025       .   A
N819       N820 0.035       .   A
N819       H822 0.024       .   A
N820       H821 0.024       .   A
C827       H828 0.025       .   A
C827       H829 0.025       .   A
C827       H830 0.025       .   A
C779       C780 0.032       .   A
C779       C784 0.031       .   A
C780       C781 0.032       .   A
C780      Cl787 0.040       .   A
C781       C782 0.032       .   A
C781       C786 0.036       .   A
C782       C783 0.031       .   A
C782       C785 0.038       .   A
C783       C784 0.032       .   A
C783       H789 0.025       .   A
C784      Br788 0.044       .   A
C785       C790 0.038       .   A
C785       N793 0.035       .   A
C785       H799 0.025       .   A
C786       C800 0.036       .   A
C786       H804 0.025       .   A
C786       H805 0.025       .   A
C790       C791 0.038       .   A
C790       H796 0.025       .   A
C790       H798 0.025       .   A
C791       N792 0.034       .   A
C791       H797 0.025       .   A
N792       N793 0.035       .   A
N792       H795 0.024       .   A
N793       H794 0.024       .   A
C800       H801 0.025       .   A
C800       H802 0.025       .   A
C800       H803 0.025       .   A
C752       C753 0.032       .   A
C752       C757 0.031       .   A
C753       C754 0.032       .   A
C753      Cl760 0.040       .   A
C754       C755 0.032       .   A
C754       C759 0.036       .   A
C755       C756 0.031       .   A
C755       C758 0.038       .   A
C756       C757 0.032       .   A
C756       H762 0.025       .   A
C757      Br761 0.044       .   A
C758       C763 0.038       .   A
C758       N766 0.035       .   A
C758       H772 0.025       .   A
C759       C773 0.036       .   A
C759       H777 0.025       .   A
C759       H778 0.025       .   A
C763       C764 0.038       .   A
C763       H769 0.025       .   A
C763       H771 0.025       .   A
C764       N765 0.034       .   A
C764       H770 0.025       .   A
N765       N766 0.035       .   A
N765       H768 0.024       .   A
N766       H767 0.024       .   A
C773       H774 0.025       .   A
C773       H775 0.025       .   A
C773       H776 0.025       .   A
C725       C726 0.032       .   A
C725       C730 0.031       .   A
C726       C727 0.032       .   A
C726      Cl733 0.040       .   A
C727       C728 0.032       .   A
C727       C732 0.036       .   A
C728       C729 0.031       .   A
C728       C731 0.038       .   A
C729       C730 0.032       .   A
C729       H735 0.025       .   A
C730      Br734 0.044       .   A
C731       C736 0.038       .   A
C731       N739 0.035       .   A
C731       H745 0.025       .   A
C732       C746 0.036       .   A
C732       H750 0.025       .   A
C732       H751 0.025       .   A
C736       C737 0.038       .   A
C736       H742 0.025       .   A
C736       H744 0.025       .   A
C737       N738 0.034       .   A
C737       H743 0.025       .   A
N738       N739 0.035       .   A
N738       H741 0.024       .   A
N739       H740 0.024       .   A
C746       H747 0.025       .   A
C746       H748 0.025       .   A
C746       H749 0.025       .   A
C698       C699 0.032       .   A
C698       C703 0.031       .   A
C699       C700 0.032       .   A
C699      Cl706 0.040       .   A
C700       C701 0.032       .   A
C700       C705 0.036       .   A
C701       C702 0.031       .   A
C701       C704 0.038       .   A
C702       C703 0.032       .   A
C702       H708 0.025       .   A
C703      Br707 0.044       .   A
C704       C709 0.038       .   A
C704       N712 0.035       .   A
C704       H718 0.025       .   A
C705       C719 0.036       .   A
C705       H723 0.025       .   A
C705       H724 0.025       .   A
C709       C710 0.038       .   A
C709       H715 0.025       .   A
C709       H717 0.025       .   A
C710       N711 0.034       .   A
C710       H716 0.025       .   A
N711       N712 0.035       .   A
N711       H714 0.024       .   A
N712       H713 0.024       .   A
C719       H720 0.025       .   A
C719       H721 0.025       .   A
C719       H722 0.025       .   A
C671       C672 0.032       .   A
C671       C676 0.031       .   A
C672       C673 0.032       .   A
C672      Cl679 0.040       .   A
C673       C674 0.032       .   A
C673       C678 0.036       .   A
C674       C675 0.031       .   A
C674       C677 0.038       .   A
C675       C676 0.032       .   A
C675       H681 0.025       .   A
C676      Br680 0.044       .   A
C677       C682 0.038       .   A
C677       N685 0.035       .   A
C677       H691 0.025       .   A
C678       C692 0.036       .   A
C678       H696 0.025       .   A
C678       H697 0.025       .   A
C682       C683 0.038       .   A
C682       H688 0.025       .   A
C682       H690 0.025       .   A
C683       N684 0.034       .   A
C683       H689 0.025       .   A
N684       N685 0.035       .   A
N684       H687 0.024       .   A
N685       H686 0.024       .   A
C692       H693 0.025       .   A
C692       H694 0.025       .   A
C692       H695 0.025       .   A
C644       C645 0.032       .   A
C644       C649 0.031       .   A
C645       C646 0.032       .   A
C645      Cl652 0.040       .   A
C646       C647 0.032       .   A
C646       C651 0.036       .   A
C647       C648 0.031       .   A
C647       C650 0.038       .   A
C648       C649 0.032       .   A
C648       H654 0.025       .   A
C649      Br653 0.044       .   A
C650       C655 0.038       .   A
C650       N658 0.035       .   A
C650       H664 0.025       .   A
C651       C665 0.036       .   A
C651       H669 0.025       .   A
C651       H670 0.025       .   A
C655       C656 0.038       .   A
C655       H661 0.025       .   A
C655       H663 0.025       .   A
C656       N657 0.034       .   A
C656       H662 0.025       .   A
N657       N658 0.035       .   A
N657       H660 0.024       .   A
N658       H659 0.024       .   A
C665       H666 0.025       .   A
C665       H667 0.025       .   A
C665       H668 0.025       .   A
C617       C618 0.032       .   A
C617       C622 0.031       .   A
C618       C619 0.032       .   A
C618      Cl625 0.040       .   A
C619       C620 0.032       .   A
C619       C624 0.036       .   A
C620       C621 0.031       .   A
C620       C623 0.038       .   A
C621       C622 0.032       .   A
C621       H627 0.025       .   A
C622      Br626 0.044       .   A
C623       C628 0.038       .   A
C623       N631 0.035       .   A
C623       H637 0.025       .   A
C624       C638 0.036       .   A
C624       H642 0.025       .   A
C624       H643 0.025       .   A
C628       C629 0.038       .   A
C628       H634 0.025       .   A
C628       H636 0.025       .   A
C629       N630 0.034       .   A
C629       H635 0.025       .   A
N630       N631 0.035       .   A
N630       H633 0.024       .   A
N631       H632 0.024       .   A
C638       H639 0.025       .   A
C638       H640 0.025       .   A
C638       H641 0.025       .   A
C590       C591 0.032       .   A
C590       C595 0.031       .   A
C591       C592 0.032       .   A
C591      Cl598 0.040       .   A
C592       C593 0.032       .   A
C592       C597 0.036       .   A
C593       C594 0.031       .   A
C593       C596 0.038       .   A
C594       C595 0.032       .   A
C594       H600 0.025       .   A
C595      Br599 0.044       .   A
C596       C601 0.038       .   A
C596       N604 0.035       .   A
C596       H610 0.025       .   A
C597       C611 0.036       .   A
C597       H615 0.025       .   A
C597       H616 0.025       .   A
C601       C602 0.038       .   A
C601       H607 0.025       .   A
C601       H609 0.025       .   A
C602       N603 0.034       .   A
C602       H608 0.025       .   A
N603       N604 0.035       .   A
N603       H606 0.024       .   A
N604       H605 0.024       .   A
C611       H612 0.025       .   A
C611       H613 0.025       .   A
C611       H614 0.025       .   A
C563       C564 0.032       .   A
C563       C568 0.031       .   A
C564       C565 0.032       .   A
C564      Cl571 0.040       .   A
C565       C566 0.032       .   A
C565       C570 0.036       .   A
C566       C567 0.031       .   A
C566       C569 0.038       .   A
C567       C568 0.032       .   A
C567       H573 0.025       .   A
C568      Br572 0.044       .   A
C569       C574 0.038       .   A
C569       N577 0.035       .   A
C569       H583 0.025       .   A
C570       C584 0.036       .   A
C570       H588 0.025       .   A
C570       H589 0.025       .   A
C574       C575 0.038       .   A
C574       H580 0.025       .   A
C574       H582 0.025       .   A
C575       N576 0.034       .   A
C575       H581 0.025       .   A
N576       N577 0.035       .   A
N576       H579 0.024       .   A
N577       H578 0.024       .   A
C584       H585 0.025       .   A
C584       H586 0.025       .   A
C584       H587 0.025       .   A
C536       C537 0.032       .   A
C536       C541 0.031       .   A
C537       C538 0.032       .   A
C537      Cl544 0.040       .   A
C538       C539 0.032       .   A
C538       C543 0.036       .   A
C539       C540 0.031       .   A
C539       C542 0.038       .   A
C540       C541 0.032       .   A
C540       H546 0.025       .   A
C541      Br545 0.044       .   A
C542       C547 0.038       .   A
C542       N550 0.035       .   A
C542       H556 0.025       .   A
C543       C557 0.036       .   A
C543       H561 0.025       .   A
C543       H562 0.025       .   A
C547       C548 0.038       .   A
C547       H553 0.025       .   A
C547       H555 0.025       .   A
C548       N549 0.034       .   A
C548       H554 0.025       .   A
N549       N550 0.035       .   A
N549       H552 0.024       .   A
N550       H551 0.024       .   A
C557       H558 0.025       .   A
C557       H559 0.025       .   A
C557       H560 0.025       .   A
C509       C510 0.032       .   A
C509       C514 0.031       .   A
C510       C511 0.032       .   A
C510      Cl517 0.040       .   A
C511       C512 0.032       .   A
C511       C516 0.036       .   A
C512       C513 0.031       .   A
C512       C515 0.038       .   A
C513       C514 0.032       .   A
C513       H519 0.025       .   A
C514      Br518 0.044       .   A
C515       C520 0.038       .   A
C515       N523 0.035       .   A
C515       H529 0.025       .   A
C516       C530 0.036       .   A
C516       H534 0.025       .   A
C516       H535 0.025       .   A
C520       C521 0.038       .   A
C520       H526 0.025       .   A
C520       H528 0.025       .   A
C521       N522 0.034       .   A
C521       H527 0.025       .   A
N522       N523 0.035       .   A
N522       H525 0.024       .   A
N523       H524 0.024       .   A
C530       H531 0.025       .   A
C530       H532 0.025       .   A
C530       H533 0.025       .   A
C482       C483 0.032       .   A
C482       C487 0.031       .   A
C483       C484 0.032       .   A
C483      Cl490 0.040       .   A
C484       C485 0.032       .   A
C484       C489 0.036       .   A
C485       C486 0.031       .   A
C485       C488 0.038       .   A
C486       C487 0.032       .   A
C486       H492 0.025       .   A
C487      Br491 0.044       .   A
C488       C493 0.038       .   A
C488       N496 0.035       .   A
C488       H502 0.025       .   A
C489       C503 0.036       .   A
C489       H507 0.025       .   A
C489       H508 0.025       .   A
C493       C494 0.038       .   A
C493       H499 0.025       .   A
C493       H501 0.025       .   A
C494       N495 0.034       .   A
C494       H500 0.025       .   A
N495       N496 0.035       .   A
N495       H498 0.024       .   A
N496       H497 0.024       .   A
C503       H504 0.025       .   A
C503       H505 0.025       .   A
C503       H506 0.025       .   A
C455       C456 0.032       .   A
C455       C460 0.031       .   A
C456       C457 0.032       .   A
C456      Cl463 0.040       .   A
C457       C458 0.032       .   A
C457       C462 0.036       .   A
C458       C459 0.031       .   A
C458       C461 0.038       .   A
C459       C460 0.032       .   A
C459       H465 0.025       .   A
C460      Br464 0.044       .   A
C461       C466 0.038       .   A
C461       N469 0.035       .   A
C461       H475 0.025       .   A
C462       C476 0.036       .   A
C462       H480 0.025       .   A
C462       H481 0.025       .   A
C466       C467 0.038       .   A
C466       H472 0.025       .   A
C466       H474 0.025       .   A
C467       N468 0.034       .   A
C467       H473 0.025       .   A
N468       N469 0.035       .   A
N468       H471 0.024       .   A
N469       H470 0.024       .   A
C476       H477 0.025       .   A
C476       H478 0.025       .   A
C476       H479 0.025       .   A
C428       C429 0.032       .   A
C428       C433 0.031       .   A
C429       C430 0.032       .   A
C429      Cl436 0.040       .   A
C430       C431 0.032       .   A
C430       C435 0.036       .   A
C431       C432 0.031       .   A
C431       C434 0.038       .   A
C432       C433 0.032       .   A
C432       H438 0.025       .   A
C433      Br437 0.044       .   A
C434       C439 0.038       .   A
C434       N442 0.035       .   A
C434       H448 0.025       .   A
C435       C449 0.036       .   A
C435       H453 0.025       .   A
C435       H454 0.025       .   A
C439       C440 0.038       .   A
C439       H445 0.025       .   A
C439       H447 0.025       .   A
C440       N441 0.034       .   A
C440       H446 0.025       .   A
N441       N442 0.035       .   A
N441       H444 0.024       .   A
N442       H443 0.024       .   A
C449       H450 0.025       .   A
C449       H451 0.025       .   A
C449       H452 0.025       .   A
C401       C402 0.032       .   A
C401       C406 0.031       .   A
C402       C403 0.032       .   A
C402      Cl409 0.040       .   A
C403       C404 0.032       .   A
C403       C408 0.036       .   A
C404       C405 0.031       .   A
C404       C407 0.038       .   A
C405       C406 0.032       .   A
C405       H411 0.025       .   A
C406      Br410 0.044       .   A
C407       C412 0.038       .   A
C407       N415 0.035       .   A
C407       H421 0.025       .   A
C408       C422 0.036       .   A
C408       H426 0.025       .   A
C408       H427 0.025       .   A
C412       C413 0.038       .   A
C412       H418 0.025       .   A
C412       H420 0.025       .   A
C413       N414 0.034       .   A
C413       H419 0.025       .   A
N414       N415 0.035       .   A
N414       H417 0.024       .   A
N415       H416 0.024       .   A
C422       H423 0.025       .   A
C422       H424 0.025       .   A
C422       H425 0.025       .   A
C374       C375 0.032       .   A
C374       C379 0.031       .   A
C375       C376 0.032       .   A
C375      Cl382 0.040       .   A
C376       C377 0.032       .   A
C376       C381 0.036       .   A
C377       C378 0.031       .   A
C377       C380 0.038       .   A
C378       C379 0.032       .   A
C378       H384 0.025       .   A
C379      Br383 0.044       .   A
C380       C385 0.038       .   A
C380       N388 0.035       .   A
C380       H394 0.025       .   A
C381       C395 0.036       .   A
C381       H399 0.025       .   A
C381       H400 0.025       .   A
C385       C386 0.038       .   A
C385       H391 0.025       .   A
C385       H393 0.025       .   A
C386       N387 0.034       .   A
C386       H392 0.025       .   A
N387       N388 0.035       .   A
N387       H390 0.024       .   A
N388       H389 0.024       .   A
C395       H396 0.025       .   A
C395       H397 0.025       .   A
C395       H398 0.025       .   A
C347       C348 0.032       .   A
C347       C352 0.031       .   A
C348       C349 0.032       .   A
C348      Cl355 0.040       .   A
C349       C350 0.032       .   A
C349       C354 0.036       .   A
C350       C351 0.031       .   A
C350       C353 0.038       .   A
C351       C352 0.032       .   A
C351       H357 0.025       .   A
C352      Br356 0.044       .   A
C353       C358 0.038       .   A
C353       N361 0.035       .   A
C353       H367 0.025       .   A
C354       C368 0.036       .   A
C354       H372 0.025       .   A
C354       H373 0.025       .   A
C358       C359 0.038       .   A
C358       H364 0.025       .   A
C358       H366 0.025       .   A
C359       N360 0.034       .   A
C359       H365 0.025       .   A
N360       N361 0.035       .   A
N360       H363 0.024       .   A
N361       H362 0.024       .   A
C368       H369 0.025       .   A
C368       H370 0.025       .   A
C368       H371 0.025       .   A
C320       C321 0.032       .   A
C320       C325 0.031       .   A
C321       C322 0.032       .   A
C321      Cl328 0.040       .   A
C322       C323 0.032       .   A
C322       C327 0.036       .   A
C323       C324 0.031       .   A
C323       C326 0.038       .   A
C324       C325 0.032       .   A
C324       H330 0.025       .   A
C325      Br329 0.044       .   A
C326       C331 0.038       .   A
C326       N334 0.035       .   A
C326       H340 0.025       .   A
C327       C341 0.036       .   A
C327       H345 0.025       .   A
C327       H346 0.025       .   A
C331       C332 0.038       .   A
C331       H337 0.025       .   A
C331       H339 0.025       .   A
C332       N333 0.034       .   A
C332       H338 0.025       .   A
N333       N334 0.035       .   A
N333       H336 0.024       .   A
N334       H335 0.024       .   A
C341       H342 0.025       .   A
C341       H343 0.025       .   A
C341       H344 0.025       .   A
C293       C294 0.032       .   A
C293       C298 0.031       .   A
C294       C295 0.032       .   A
C294      Cl301 0.040       .   A
C295       C296 0.032       .   A
C295       C300 0.036       .   A
C296       C297 0.031       .   A
C296       C299 0.038       .   A
C297       C298 0.032       .   A
C297       H303 0.025       .   A
C298      Br302 0.044       .   A
C299       C304 0.038       .   A
C299       N307 0.035       .   A
C299       H313 0.025       .   A
C300       C314 0.036       .   A
C300       H318 0.025       .   A
C300       H319 0.025       .   A
C304       C305 0.038       .   A
C304       H310 0.025       .   A
C304       H312 0.025       .   A
C305       N306 0.034       .   A
C305       H311 0.025       .   A
N306       N307 0.035       .   A
N306       H309 0.024       .   A
N307       H308 0.024       .   A
C314       H315 0.025       .   A
C314       H316 0.025       .   A
C314       H317 0.025       .   A
C266       C267 0.032       .   A
C266       C271 0.031       .   A
C267       C268 0.032       .   A
C267      Cl274 0.040       .   A
C268       C269 0.032       .   A
C268       C273 0.036       .   A
C269       C270 0.031       .   A
C269       C272 0.038       .   A
C270       C271 0.032       .   A
C270       H276 0.025       .   A
C271      Br275 0.044       .   A
C272       C277 0.038       .   A
C272       N280 0.035       .   A
C272       H286 0.025       .   A
C273       C287 0.036       .   A
C273       H291 0.025       .   A
C273       H292 0.025       .   A
C277       C278 0.038       .   A
C277       H283 0.025       .   A
C277       H285 0.025       .   A
C278       N279 0.034       .   A
C278       H284 0.025       .   A
N279       N280 0.035       .   A
N279       H282 0.024       .   A
N280       H281 0.024       .   A
C287       H288 0.025       .   A
C287       H289 0.025       .   A
C287       H290 0.025       .   A
C239       C240 0.032       .   A
C239       C244 0.031       .   A
C240       C241 0.032       .   A
C240      Cl247 0.040       .   A
C241       C242 0.032       .   A
C241       C246 0.036       .   A
C242       C243 0.031       .   A
C242       C245 0.038       .   A
C243       C244 0.032       .   A
C243       H249 0.025       .   A
C244      Br248 0.044       .   A
C245       C250 0.038       .   A
C245       N253 0.035       .   A
C245       H259 0.025       .   A
C246       C260 0.036       .   A
C246       H264 0.025       .   A
C246       H265 0.025       .   A
C250       C251 0.038       .   A
C250       H256 0.025       .   A
C250       H258 0.025       .   A
C251       N252 0.034       .   A
C251       H257 0.025       .   A
N252       N253 0.035       .   A
N252       H255 0.024       .   A
N253       H254 0.024       .   A
C260       H261 0.025       .   A
C260       H262 0.025       .   A
C260       H263 0.025       .   A
C212       C213 0.032       .   A
C212       C217 0.031       .   A
C213       C214 0.032       .   A
C213      Cl220 0.040       .   A
C214       C215 0.032       .   A
C214       C219 0.036       .   A
C215       C216 0.031       .   A
C215       C218 0.038       .   A
C216       C217 0.032       .   A
C216       H222 0.025       .   A
C217      Br221 0.044       .   A
C218       C223 0.038       .   A
C218       N226 0.035       .   A
C218       H232 0.025       .   A
C219       C233 0.036       .   A
C219       H237 0.025       .   A
C219       H238 0.025       .   A
C223       C224 0.038       .   A
C223       H229 0.025       .   A
C223       H231 0.025       .   A
C224       N225 0.034       .   A
C224       H230 0.025       .   A
N225       N226 0.035       .   A
N225       H228 0.024       .   A
N226       H227 0.024       .   A
C233       H234 0.025       .   A
C233       H235 0.025       .   A
C233       H236 0.025       .   A
C185       C186 0.032       .   A
C185       C190 0.031       .   A
C186       C187 0.032       .   A
C186      Cl193 0.040       .   A
C187       C188 0.032       .   A
C187       C192 0.036       .   A
C188       C189 0.031       .   A
C188       C191 0.038       .   A
C189       C190 0.032       .   A
C189       H195 0.025       .   A
C190      Br194 0.044       .   A
C191       C196 0.038       .   A
C191       N199 0.035       .   A
C191       H205 0.025       .   A
C192       C206 0.036       .   A
C192       H210 0.025       .   A
C192       H211 0.025       .   A
C196       C197 0.038       .   A
C196       H202 0.025       .   A
C196       H204 0.025       .   A
C197       N198 0.034       .   A
C197       H203 0.025       .   A
N198       N199 0.035       .   A
N198       H201 0.024       .   A
N199       H200 0.024       .   A
C206       H207 0.025       .   A
C206       H208 0.025       .   A
C206       H209 0.025       .   A
