data_pcu_v1-6c_Zn_1_Ch_1-30_fer_tobacco
_audit_creation_date              2021-02-03
_audit_creation_method            'tobacco_3.0'
_symmetry_space_group_name_H-M    'P1'
_symmetry_Int_Tables_number       1
_symmetry_cell_setting            triclinic
loop_
_symmetry_equiv_pos_as_xyz
  x,y,z
_cell_length_a                    53.671202090277276
_cell_length_b                    53.671202090277276
_cell_length_c                    53.671202090277276
_cell_angle_alpha                 90.0
_cell_angle_beta                  90.0
_cell_angle_gamma                 90.0
loop_
_atom_site_label
_atom_site_type_symbol
_atom_site_fract_x
_atom_site_fract_y
_atom_site_fract_z
_atom_site_charge
Zn1       Zn   -0.0208901600   -0.0208901600    0.0208901600          1.4972
Zn2       Zn    0.0208901600    0.0208901600    0.0208901600          1.4936
Zn3       Zn    0.0208901600   -0.0208901600   -0.0208901600          1.4911
Zn4       Zn   -0.0208901600    0.0208901600   -0.0208901600          1.4948
O5         O    0.0000000000    0.0000000000    0.0000000000         -2.2388
O6         O   -0.0153527398   -0.0153527398    0.0558325486         -1.1451
O7         O    0.0558325486    0.0153527398    0.0153527398         -1.1433
O8         O    0.0153527398   -0.0558325486   -0.0153527398         -1.1385
O9         O    0.0153527398    0.0153527398    0.0558325486         -1.1453
O10        O   -0.0153527398   -0.0558325486    0.0153527398         -1.1413
O11        O    0.0558325486   -0.0153527398   -0.0153527398         -1.1471
O12        O   -0.0153527398    0.0153527398   -0.0558325486          -1.141
O13        O    0.0153527398    0.0558325486    0.0153527398         -1.1486
O14        O    0.0153527398   -0.0153527398   -0.0558325486         -1.1425
O15        O   -0.0153527398    0.0558325486   -0.0153527398         -1.1472
O16        O   -0.0558325486    0.0153527398   -0.0153527398         -1.1462
O17        O   -0.0558325486   -0.0153527398    0.0153527398         -1.1441
C18        C   -0.0000000000   -0.0000000000    0.0667546069          0.3738
C19        C    0.0667546069   -0.0000000000   -0.0000000000          0.3787
C20        C   -0.0000000000   -0.0667546069    0.0000000000          0.3683
C21        C    0.0000000000    0.0000000000   -0.0667546069           0.372
C22        C    0.0000000000    0.0667546069   -0.0000000000          0.3834
C23        C   -0.0667546069    0.0000000000    0.0000000000          0.3739
Zn24      Zn    0.9791098400    0.0208901600    0.4791098400          1.4972
Zn25      Zn    1.0208901600   -0.0208901600    0.4791098400          1.4936
Zn26      Zn    1.0208901600    0.0208901600    0.5208901600          1.4911
Zn27      Zn    0.9791098400   -0.0208901600    0.5208901600          1.4948
O28        O    1.0000000000    0.0000000000    0.5000000000         -2.2388
O29        O    0.9846472602    0.0153527398    0.4441674514         -1.1451
O30        O    1.0558325486   -0.0153527398    0.4846472602         -1.1433
O31        O    1.0153527398    0.0558325486    0.5153527398         -1.1385
O32        O    1.0153527398   -0.0153527398    0.4441674514         -1.1453
O33        O    0.9846472602    0.0558325486    0.4846472602         -1.1413
O34        O    1.0558325486    0.0153527398    0.5153527398         -1.1471
O35        O    0.9846472602   -0.0153527398    0.5558325486          -1.141
O36        O    1.0153527398   -0.0558325486    0.4846472602         -1.1486
O37        O    1.0153527398    0.0153527398    0.5558325486         -1.1425
O38        O    0.9846472602   -0.0558325486    0.5153527398         -1.1472
O39        O    0.9441674514   -0.0153527398    0.5153527398         -1.1462
O40        O    0.9441674514    0.0153527398    0.4846472602         -1.1441
C41        C    1.0000000000    0.0000000000    0.4332453931          0.3738
C42        C    1.0667546069    0.0000000000    0.5000000000          0.3787
C43        C    1.0000000000    0.0667546069    0.5000000000          0.3683
C44        C    1.0000000000    0.0000000000    0.5667546069           0.372
C45        C    1.0000000000   -0.0667546069    0.5000000000          0.3834
C46        C    0.9332453931    0.0000000000    0.5000000000          0.3739
Zn47      Zn    1.0208901600    0.5208901600    0.0208901600          1.4972
Zn48      Zn    1.0208901600    0.4791098400   -0.0208901600          1.4936
Zn49      Zn    0.9791098400    0.4791098400    0.0208901600          1.4911
Zn50      Zn    0.9791098400    0.5208901600   -0.0208901600          1.4948
O51        O    1.0000000000    0.5000000000    0.0000000000         -2.2388
O52        O    1.0558325486    0.5153527398    0.0153527398         -1.1451
O53        O    1.0153527398    0.4441674514   -0.0153527398         -1.1433
O54        O    0.9846472602    0.4846472602    0.0558325486         -1.1385
O55        O    1.0558325486    0.4846472602   -0.0153527398         -1.1453
O56        O    1.0153527398    0.5153527398    0.0558325486         -1.1413
O57        O    0.9846472602    0.4441674514    0.0153527398         -1.1471
O58        O    0.9441674514    0.5153527398   -0.0153527398          -1.141
O59        O    1.0153527398    0.4846472602   -0.0558325486         -1.1486
O60        O    0.9441674514    0.4846472602    0.0153527398         -1.1425
O61        O    0.9846472602    0.5153527398   -0.0558325486         -1.1472
O62        O    0.9846472602    0.5558325486   -0.0153527398         -1.1462
O63        O    1.0153527398    0.5558325486    0.0153527398         -1.1441
C64        C    1.0667546069    0.5000000000    0.0000000000          0.3738
C65        C    1.0000000000    0.4332453931    0.0000000000          0.3787
C66        C    1.0000000000    0.5000000000    0.0667546069          0.3683
C67        C    0.9332453931    0.5000000000    0.0000000000           0.372
C68        C    1.0000000000    0.5000000000   -0.0667546069          0.3834
C69        C    1.0000000000    0.5667546069    0.0000000000          0.3739
Zn70      Zn    1.0208901600    0.4791098400    0.5208901600          1.4972
Zn71      Zn    0.9791098400    0.4791098400    0.4791098400          1.4936
Zn72      Zn    0.9791098400    0.5208901600    0.5208901600          1.4911
Zn73      Zn    1.0208901600    0.5208901600    0.4791098400          1.4948
O74        O    1.0000000000    0.5000000000    0.5000000000         -2.2388
O75        O    1.0153527398    0.4441674514    0.5153527398         -1.1451
O76        O    0.9441674514    0.4846472602    0.4846472602         -1.1433
O77        O    0.9846472602    0.5153527398    0.5558325486         -1.1385
O78        O    0.9846472602    0.4441674514    0.4846472602         -1.1453
O79        O    1.0153527398    0.4846472602    0.5558325486         -1.1413
O80        O    0.9441674514    0.5153527398    0.5153527398         -1.1471
O81        O    1.0153527398    0.5558325486    0.4846472602          -1.141
O82        O    0.9846472602    0.4846472602    0.4441674514         -1.1486
O83        O    0.9846472602    0.5558325486    0.5153527398         -1.1425
O84        O    1.0153527398    0.5153527398    0.4441674514         -1.1472
O85        O    1.0558325486    0.5153527398    0.4846472602         -1.1462
O86        O    1.0558325486    0.4846472602    0.5153527398         -1.1441
C87        C    1.0000000000    0.4332453931    0.5000000000          0.3738
C88        C    0.9332453931    0.5000000000    0.5000000000          0.3787
C89        C    1.0000000000    0.5000000000    0.5667546069          0.3683
C90        C    1.0000000000    0.5667546069    0.5000000000           0.372
C91        C    1.0000000000    0.5000000000    0.4332453931          0.3834
C92        C    1.0667546069    0.5000000000    0.5000000000          0.3739
Zn93      Zn    0.4791098400    0.9791098400   -0.0208901600          1.4972
Zn94      Zn    0.4791098400    1.0208901600    0.0208901600          1.4936
Zn95      Zn    0.5208901600    0.9791098400    0.0208901600          1.4911
Zn96      Zn    0.5208901600    1.0208901600   -0.0208901600          1.4948
O97        O    0.5000000000    1.0000000000    0.0000000000         -2.2388
O98        O    0.4441674514    0.9846472602   -0.0153527398         -1.1451
O99        O    0.4846472602    1.0153527398    0.0558325486         -1.1433
O100       O    0.5153527398    0.9441674514    0.0153527398         -1.1385
O101       O    0.4441674514    1.0153527398    0.0153527398         -1.1453
O102       O    0.4846472602    0.9441674514   -0.0153527398         -1.1413
O103       O    0.5153527398    0.9846472602    0.0558325486         -1.1471
O104       O    0.5558325486    1.0153527398   -0.0153527398          -1.141
O105       O    0.4846472602    1.0558325486    0.0153527398         -1.1486
O106       O    0.5558325486    0.9846472602    0.0153527398         -1.1425
O107       O    0.5153527398    1.0558325486   -0.0153527398         -1.1472
O108       O    0.5153527398    1.0153527398   -0.0558325486         -1.1462
O109       O    0.4846472602    0.9846472602   -0.0558325486         -1.1441
C110       C    0.4332453931    1.0000000000    0.0000000000          0.3738
C111       C    0.5000000000    1.0000000000    0.0667546069          0.3787
C112       C    0.5000000000    0.9332453931    0.0000000000          0.3683
C113       C    0.5667546069    1.0000000000    0.0000000000           0.372
C114       C    0.5000000000    1.0667546069    0.0000000000          0.3834
C115       C    0.5000000000    1.0000000000   -0.0667546069          0.3739
Zn116     Zn    0.4791098400    1.0208901600    0.5208901600          1.4972
Zn117     Zn    0.4791098400    0.9791098400    0.4791098400          1.4936
Zn118     Zn    0.5208901600    1.0208901600    0.4791098400          1.4911
Zn119     Zn    0.5208901600    0.9791098400    0.5208901600          1.4948
O120       O    0.5000000000    1.0000000000    0.5000000000         -2.2388
O121       O    0.4441674514    1.0153527398    0.5153527398         -1.1451
O122       O    0.4846472602    0.9846472602    0.4441674514         -1.1433
O123       O    0.5153527398    1.0558325486    0.4846472602         -1.1385
O124       O    0.4441674514    0.9846472602    0.4846472602         -1.1453
O125       O    0.4846472602    1.0558325486    0.5153527398         -1.1413
O126       O    0.5153527398    1.0153527398    0.4441674514         -1.1471
O127       O    0.5558325486    0.9846472602    0.5153527398          -1.141
O128       O    0.4846472602    0.9441674514    0.4846472602         -1.1486
O129       O    0.5558325486    1.0153527398    0.4846472602         -1.1425
O130       O    0.5153527398    0.9441674514    0.5153527398         -1.1472
O131       O    0.5153527398    0.9846472602    0.5558325486         -1.1462
O132       O    0.4846472602    1.0153527398    0.5558325486         -1.1441
C133       C    0.4332453931    1.0000000000    0.5000000000          0.3738
C134       C    0.5000000000    1.0000000000    0.4332453931          0.3787
C135       C    0.5000000000    1.0667546069    0.5000000000          0.3683
C136       C    0.5667546069    1.0000000000    0.5000000000           0.372
C137       C    0.5000000000    0.9332453931    0.5000000000          0.3834
C138       C    0.5000000000    1.0000000000    0.5667546069          0.3739
Zn139     Zn    0.4791098400    0.5208901600   -0.0208901600          1.4972
Zn140     Zn    0.4791098400    0.4791098400    0.0208901600          1.4936
Zn141     Zn    0.5208901600    0.4791098400   -0.0208901600          1.4911
Zn142     Zn    0.5208901600    0.5208901600    0.0208901600          1.4948
O143       O    0.5000000000    0.5000000000    0.0000000000         -2.2388
O144       O    0.4441674514    0.5153527398   -0.0153527398         -1.1451
O145       O    0.4846472602    0.4441674514    0.0153527398         -1.1433
O146       O    0.5153527398    0.4846472602   -0.0558325486         -1.1385
O147       O    0.4441674514    0.4846472602    0.0153527398         -1.1453
O148       O    0.4846472602    0.5153527398   -0.0558325486         -1.1413
O149       O    0.5153527398    0.4441674514   -0.0153527398         -1.1471
O150       O    0.5558325486    0.5153527398    0.0153527398          -1.141
O151       O    0.4846472602    0.4846472602    0.0558325486         -1.1486
O152       O    0.5558325486    0.4846472602   -0.0153527398         -1.1425
O153       O    0.5153527398    0.5153527398    0.0558325486         -1.1472
O154       O    0.5153527398    0.5558325486    0.0153527398         -1.1462
O155       O    0.4846472602    0.5558325486   -0.0153527398         -1.1441
C156       C    0.4332453931    0.5000000000    0.0000000000          0.3738
C157       C    0.5000000000    0.4332453931    0.0000000000          0.3787
C158       C    0.5000000000    0.5000000000   -0.0667546069          0.3683
C159       C    0.5667546069    0.5000000000    0.0000000000           0.372
C160       C    0.5000000000    0.5000000000    0.0667546069          0.3834
C161       C    0.5000000000    0.5667546069    0.0000000000          0.3739
Zn162     Zn    0.4791098400    0.5208901600    0.4791098400          1.4972
Zn163     Zn    0.5208901600    0.5208901600    0.5208901600          1.4936
Zn164     Zn    0.4791098400    0.4791098400    0.5208901600          1.4911
Zn165     Zn    0.5208901600    0.4791098400    0.4791098400          1.4948
O166       O    0.5000000000    0.5000000000    0.5000000000         -2.2388
O167       O    0.4846472602    0.5558325486    0.4846472602         -1.1451
O168       O    0.5153527398    0.5153527398    0.5558325486         -1.1433
O169       O    0.4441674514    0.4846472602    0.5153527398         -1.1385
O170       O    0.5153527398    0.5558325486    0.5153527398         -1.1453
O171       O    0.4441674514    0.5153527398    0.4846472602         -1.1413
O172       O    0.4846472602    0.4846472602    0.5558325486         -1.1471
O173       O    0.5153527398    0.4441674514    0.4846472602          -1.141
O174       O    0.5558325486    0.5153527398    0.5153527398         -1.1486
O175       O    0.4846472602    0.4441674514    0.5153527398         -1.1425
O176       O    0.5558325486    0.4846472602    0.4846472602         -1.1472
O177       O    0.5153527398    0.4846472602    0.4441674514         -1.1462
O178       O    0.4846472602    0.5153527398    0.4441674514         -1.1441
C179       C    0.5000000000    0.5667546069    0.5000000000          0.3738
C180       C    0.5000000000    0.5000000000    0.5667546069          0.3787
C181       C    0.4332453931    0.5000000000    0.5000000000          0.3683
C182       C    0.5000000000    0.4332453931    0.5000000000           0.372
C183       C    0.5667546069    0.5000000000    0.5000000000          0.3834
C184       C    0.5000000000    0.5000000000    0.4332453931          0.3739
C1013      C    0.5000000000    0.5000000000   -0.0954478342         -0.4003
C1014      C    0.5010138183    0.5199000885   -0.1115193144         -0.3998
C1015      C    0.5015416571    0.5185091150   -0.1369325843         -0.3997
C1016      C    0.5010633624    0.4972022157   -0.1503364154         -0.4001
C1017      C    0.5000347503    0.4773697592   -0.1344725719          0.5994
C1018      C    0.4995566002    0.4785469735   -0.1087721308          0.5994
N1019      N    0.5015964084    0.4963101291   -0.1758789148            -0.4
H1020      H    0.5023088380    0.5360715168   -0.1470492329         -0.3994
H1021      H    0.5014591655    0.5388586683   -0.1042767947         -0.3995
H1022      H    0.4987691463    0.4611400099   -0.0984739198           0.599
H1023      H    0.4996479923    0.4588939070   -0.1427577782          0.5992
N1024      N    0.5028960549    0.5074382270   -0.1982844386         -0.3994
C1025      C    0.5020383029    0.4995794733   -0.2234657363         -0.4003
C1026      C    0.5005529397    0.4989928987   -0.2472790012          0.5983
C1027      C    0.4950264561    0.5013617332   -0.2765410950          0.5938
C1028      C    0.5070316565    0.4874696423   -0.3007215598         -0.3974
C1029      C    0.4972587143    0.5016035203   -0.3259279138          0.5949
N1030      N    0.4988133774    0.5271138413   -0.3145981532           0.596
N1031      N    0.4959992142    0.5270263772   -0.2868565529          0.5943
C1032      C    0.5098360912    0.5010225994   -0.3551321330          -0.396
H1033      H    0.4803699492    0.5369978809   -0.2828039822          0.5826
H1034      H    0.5163016582    0.5341511086   -0.3169838535          -0.391
H1035      H    0.5017523434    0.4678226171   -0.3009480388          0.5988
H1036      H    0.4774590050    0.4971915062   -0.3278506829          0.5801
H1037      H    0.5273355299    0.4884893351   -0.2996547640         -0.3822
H1038      H    0.4753549126    0.4961810082   -0.2775391098          0.5792
O1039      O    0.5001297701    0.4864363001   -0.3784925660          0.5965
C1040      C    0.5147057420    0.5232754709   -0.3963655822          -0.393
C1041      C    0.5096037654    0.5269635090   -0.3679386611         -0.3965
H1042      H    0.4912101768    0.5354096649   -0.3655700730          0.5897
H1043      H    0.5345734116    0.5202167382   -0.3994090445         -0.3782
H1044      H    0.5089671196    0.5396519820   -0.4069891388         -0.3976
H1045      H    0.5233907790    0.5394557624   -0.3596532677         -0.3862
H1046      H    0.4806997851    0.5058403372   -0.4074371030          0.5815
C1047      C    0.5000000000    0.5000000000   -0.4045521658           0.596
H1048      H    0.5293952643    0.4957689359   -0.3529556220         -0.3814
C977       C    0.5000000000    0.5000000000    0.0954478342         -0.4003
C978       C    0.4989104050    0.5198960833    0.1115193144         -0.3998
C979       C    0.4983878671    0.5185031098    0.1369325843         -0.3997
C980       C    0.4989473000    0.4971981865    0.1503364154         -0.4001
C981       C    0.5000514311    0.4773697910    0.1344725719          0.5994
C982       C    0.5005250947    0.4785488177    0.1087721308          0.5994
N983       N    0.4984176550    0.4963040763    0.1758789148            -0.4
H984       H    0.4975538102    0.5360624626    0.1470492329         -0.3994
H985       H    0.4983928623    0.5388528297    0.1042767947         -0.3995
H986       H    0.5013788325    0.4611449791    0.0984739198           0.599
H987       H    0.5005085466    0.4588955456    0.1427577782          0.5992
N988       N    0.4970756396    0.5074271442    0.1982844386         -0.3994
C989       C    0.4979633134    0.4995717140    0.2234657363         -0.4003
C990       C    0.4994508996    0.4989908003    0.2472790012          0.5983
C991       C    0.5049683220    0.5013806637    0.2765410950          0.5938
C992       C    0.4930161130    0.4874429550    0.3007215598         -0.3974
C993       C    0.5027351592    0.5016139481    0.3259279138          0.5949
N994       N    0.5010833583    0.5271181636    0.3145981532           0.596
N995       N    0.5038978342    0.5270414171    0.2868565529          0.5943
C996       C    0.4901600858    0.5009851339    0.3551321330          -0.396
H997       H    0.5194890121    0.5370723683    0.2828039822          0.5826
H998       H    0.4835684047    0.5340887806    0.3169838535          -0.391
H999       H    0.4983702081    0.4678161771    0.3009480388          0.5988
H1000      H    0.5225515270    0.4972773678    0.3278506829          0.5801
H1001      H    0.4727085036    0.4883853186    0.2996547640         -0.3822
H1002      H    0.5246594523    0.4962748900    0.2775391098          0.5792
O1003      O    0.4999218845    0.4864359043    0.3784925660          0.5965
C1004      C    0.4852057263    0.5232192992    0.3963655822          -0.393
C1005      C    0.4902936210    0.5269267402    0.3679386611         -0.3965
H1006      H    0.5086549113    0.5354428818    0.3655700730          0.5897
H1007      H    0.4653498491    0.5200849281    0.3994090445         -0.3782
H1008      H    0.4908819415    0.5396175456    0.4069891388         -0.3976
H1009      H    0.4764591340    0.5393663988    0.3596532677         -0.3862
H1010      H    0.5192778336    0.5059137945    0.4074371030          0.5815
C1011      C    0.5000000000    0.5000000000    0.4045521658           0.596
H1012      H    0.4706210617    0.4956570227    0.3529556220         -0.3814
C941       C    0.5000000000    0.9045521658    0.5000000000         -0.4003
C942       C    0.4942108423    0.8884806856    0.5190663841         -0.3998
C943       C    0.4940345066    0.8630674157    0.5175891141         -0.3997
C944       C    0.4996436956    0.8496635846    0.4970282356         -0.4001
C945       C    0.5054308779    0.8655274281    0.4780310544          0.5994
C946       C    0.5056106125    0.8912278692    0.4792888925          0.5994
N947       N    0.4993418388    0.8241210852    0.4960338317            -0.4
H948       H    0.4890491767    0.8529507671    0.5344465459         -0.3994
H949       H    0.4892006824    0.8957232053    0.5373563918         -0.3995
H950       H    0.5105780813    0.9015260802    0.4625871944           0.599
H951       H    0.5102676166    0.8572422218    0.4601953414          0.5992
N952       N    0.4953935132    0.8017155614    0.5065187908         -0.3994
C953       C    0.4981235617    0.7765342637    0.4990997220         -0.4003
C954       C    0.4997066113    0.7527209988    0.4988891812          0.5983
C955       C    0.5044975418    0.7234589050    0.5025224143          0.5938
C956       C    0.4962021755    0.6992784402    0.4861424899         -0.3974
C957       C    0.5022729567    0.6740720862    0.5022180154          0.5949
N958       N    0.4946042376    0.6854018468    0.5265980114           0.596
N959       N    0.4973562427    0.7131434471    0.5271926810          0.5943
C960       C    0.4902080532    0.6448678670    0.4986171843          -0.396
H961       H    0.5101151457    0.7171960178    0.5406431533          0.5826
H962       H    0.4759341670    0.6830161465    0.5292040745          -0.391
H963       H    0.5060694931    0.6990519612    0.4683516836          0.5988
H964       H    0.5225521260    0.6721493171    0.5027176661          0.5801
H965       H    0.4762529168    0.7003452360    0.4822291632         -0.3822
H966       H    0.5248379613    0.7224608902    0.5022451535          0.5792
O967       O    0.5031493421    0.6215074340    0.4868063485          0.5965
C968       C    0.4801090326    0.6036344178    0.5190356457          -0.393
C969       C    0.4841694659    0.6320613389    0.5238465368         -0.3965
H970       H    0.4999792198    0.6344299270    0.5364843107          0.5897
H971       H    0.4615679004    0.6005909555    0.5112699162         -0.3782
H972       H    0.4817233436    0.5930108612    0.5363132585         -0.3976
H973       H    0.4677738989    0.6403467323    0.5326399163         -0.3862
H974       H    0.5173187867    0.5925628970    0.5103279942          0.5815
C975       C    0.5000000000    0.5954478342    0.5000000000           0.596
H976       H    0.4724963056    0.6470443780    0.4887959712         -0.3814
C905       C    0.5000000000    1.0954478342    0.5000000000         -0.4003
C906       C    0.5192540908    1.1115193144    0.5051304323         -0.3998
C907       C    0.5180916575    1.1369325843    0.5042019013         -0.3997
C908       C    0.4976624111    1.1503364154    0.4981307717         -0.4001
C909       C    0.4784681700    1.1344725719    0.4930351382          0.5994
C910       C    0.4794423388    1.1087721308    0.4938508931          0.5994
N911       N    0.4969764796    1.1758789148    0.4973500959            -0.4
H912       H    0.5350448805    1.1470492329    0.5088510681         -0.3994
H913       H    0.5374378023    1.1042767947    0.5105136210         -0.3995
H914       H    0.4626308728    1.0984739198    0.4892686365           0.599
H915       H    0.4607619291    1.1427577782    0.4877440388          0.5992
N916       N    0.5079677735    1.1982844386    0.4995215243         -0.3994
C917       C    0.5002240314    1.2234657363    0.4979308622         -0.4003
C918       C    0.4992106758    1.2472790012    0.4991651571          0.5983
C919       C    0.4997728518    1.2765410950    0.5051515881          0.5938
C920       C    0.4902257779    1.3007215598    0.4894682082         -0.3974
C921       C    0.5006867713    1.3259279138    0.5031006886          0.5949
N922       N    0.5254470921    1.3145981532    0.5094347216           0.596
N923       N    0.5245018366    1.2868565529    0.5120868257          0.5943
C924       C    0.5039863014    1.3551321330    0.4909499281          -0.396
H925       H    0.5292067006    1.2828039822    0.5300191726          0.5826
H926       H    0.5375028674    1.3169838535    0.4949426071          -0.391
H927       H    0.4699060391    1.3009480388    0.4884757562          0.5988
H928       H    0.4904220565    1.3278506829    0.5205972594          0.5801
H929       H    0.4974156584    1.2996547640    0.4704526180         -0.3822
H930       H    0.4888156337    1.2775391098    0.5222906928          0.5792
O931       O    0.4871280151    1.3784925660    0.4957218229          0.5965
C932       C    0.5266611493    1.3963655822    0.4931305379          -0.393
C933       C    0.5286091479    1.3679386611    0.4991169468         -0.3965
H934       H    0.5310152537    1.3655700730    0.5192135213          0.5897
H935       H    0.5298350299    1.3994090445    0.4732809378         -0.3782
H936       H    0.5404927163    1.4069891388    0.5036095482         -0.3976
H937       H    0.5447239839    1.3596532677    0.4898190868         -0.3862
H938       H    0.4996478356    1.4074371030    0.5201614438          0.5815
C939       C    0.5000000000    1.4045521658    0.5000000000           0.596
H940       H    0.5049762604    1.3529556220    0.4707216753         -0.3814
C869       C    0.5000000000    0.5954478342    0.0000000000         -0.4003
C870       C    0.4994069416    0.6115193144    0.0199170688         -0.3998
C871       C    0.5000451507    0.6369325843    0.0185731529         -0.3997
C872       C    0.5012853541    0.6503364154   -0.0027029985         -0.4001
C873       C    0.5018582170    0.6344725719   -0.0225538474          0.5994
C874       C    0.5012867600    0.6087721308   -0.0214189915          0.5994
N875       N    0.5018885524    0.6758789148   -0.0035492305            -0.4
H876       H    0.4993946312    0.6470492329    0.0361402627         -0.3994
H877       H    0.4983231290    0.6042767947    0.0388498825         -0.3995
H878       H    0.5019045469    0.5984739198   -0.0388328023           0.599
H879       H    0.5029615293    0.6427577782   -0.0410007821          0.5992
N880       N    0.5022872532    0.6982844386    0.0076474066         -0.3994
C881       C    0.5020655610    0.7234657363   -0.0002549096         -0.4003
C882       C    0.5006322953    0.7472790012   -0.0009592695          0.5983
C883       C    0.4949328995    0.7765410950    0.0009565290          0.5938
C884       C    0.5080185052    0.8007215598   -0.0119229875         -0.3974
C885       C    0.4971384148    0.8259279138    0.0013774086          0.5949
N886       N    0.4966323611    0.8145981532    0.0269300478           0.596
N887       N    0.4938343975    0.7868565529    0.0266160984          0.5943
C888       C    0.5097217018    0.8551321330    0.0018118814          -0.396
H889       H    0.4774524394    0.7828039822    0.0352957447          0.5826
H890       H    0.5134966966    0.8169838535    0.0353536627          -0.391
H891       H    0.5043395480    0.8009480388   -0.0319315362          0.5988
H892       H    0.4777586206    0.8278506829   -0.0046157488          0.5801
H893       H    0.5281741824    0.7996547640   -0.0092704933         -0.3822
H894       H    0.4757427981    0.7775391098   -0.0057925117          0.5792
O895       O    0.5012223319    0.8784925660   -0.0135091340          0.5965
C896       C    0.5127823459    0.8963655822    0.0243847908          -0.393
C897       C    0.5073997730    0.8679386611    0.0276497105         -0.3965
H898       H    0.4883853958    0.8655700730    0.0345862159          0.5897
H899       H    0.5328318836    0.8994090445    0.0229369726         -0.3782
H900       H    0.5057427409    0.9069891388    0.0402456189         -0.3976
H901       H    0.5201353065    0.8596532677    0.0412123181         -0.3862
H902       H    0.4802919256    0.9074371030    0.0042661035          0.5815
C903       C    0.5000000000    0.9045521658    0.0000000000           0.596
H904       H    0.5296406171    0.8529556220   -0.0018485890         -0.3814
C833       C    0.5000000000    1.4045521658    0.0000000000         -0.4003
C834       C    0.4805035348    1.3884806856   -0.0041145101         -0.3998
C835       C    0.4819599570    1.3630674157   -0.0044182457         -0.3997
C836       C    0.5029296890    1.3496635846   -0.0006125836         -0.4001
C837       C    0.5223570406    1.3655274281    0.0035059578          0.5994
C838       C    0.5211195189    1.3912278692    0.0037940570          0.5994
N839       N    0.5038941816    1.3241210852   -0.0009995083            -0.4
H840       H    0.4647338116    1.3529507671   -0.0079234469         -0.3994
H841       H    0.4618480541    1.3957232053   -0.0075202587         -0.3995
H842       H    0.5381889685    1.4015260802    0.0072949648           0.599
H843       H    0.5405449031    1.3572422218    0.0067783205          0.5992
N844       N    0.4931064163    1.3017155614   -0.0040240350         -0.3994
C845       C    0.5007342215    1.2765342637   -0.0019474188         -0.4003
C846       C    0.5010812033    1.2527209988   -0.0003885804          0.5983
C847       C    0.4978769709    1.2234589050    0.0046992769          0.5938
C848       C    0.5134761107    1.1992784402   -0.0049848266         -0.3974
C849       C    0.4979873758    1.1740720862    0.0024566783          0.5949
N850       N    0.4730343643    1.1854018468   -0.0030696835           0.596
N851       N    0.4726805032    1.2131434471   -0.0002764870          0.5943
C852       C    0.5005287518    1.1448678670   -0.0098749593          -0.396
H853       H    0.4603867285    1.2171960178    0.0136003971          0.5826
H854       H    0.4688196147    1.1830161465   -0.0214435504          -0.391
H855       H    0.5320553336    1.1990519612    0.0033030698          0.5988
H856       H    0.4992475955    1.1721493171    0.0227028188          0.5801
H857       H    0.5156453158    1.2003452360   -0.0251982280         -0.3822
H858       H    0.4999164869    1.2224608902    0.0249390870          0.5792
O859       O    0.5134169971    1.1215074340    0.0019937361          0.5965
C860       C    0.4793116798    1.1036344178   -0.0181658966          -0.393
C861       C    0.4748708965    1.1320613389   -0.0137036960         -0.3965
H862       H    0.4636512372    1.1344299270    0.0031421015          0.5897
H863       H    0.4854408546    1.1005909555   -0.0373104352         -0.3782
H864       H    0.4622390542    1.0930108612   -0.0150598768         -0.3976
H865       H    0.4646892986    1.1403467323   -0.0292752471         -0.3862
H866       H    0.4912122422    1.0925628970    0.0181489159          0.5815
C867       C    0.5000000000    1.0954478342    0.0000000000           0.596
H868       H    0.5087775709    1.1470443780   -0.0283714243         -0.3814
C797       C    0.5000000000    1.0000000000   -0.0954478342         -0.4003
C798       C    0.5042739706    1.0194621305   -0.1115193144         -0.3998
C799       C    0.5045657737    1.0180032707   -0.1369325843         -0.3997
C800       C    0.5005885806    0.9970653945   -0.1503364154         -0.4001
C801       C    0.4963111447    0.9776724083   -0.1344725719          0.5994
C802       C    0.4960331855    0.9789122469   -0.1087721308          0.5994
N803       N    0.5009675969    0.9960977668   -0.1758789148            -0.4
H804       H    0.5082118709    1.0352001453   -0.1470492329         -0.3994
H805       H    0.5078323191    1.0380891066   -0.1042767947         -0.3995
H806       H    0.4923926642    0.9618720277   -0.0984739198           0.599
H807       H    0.4928900054    0.9595119429   -0.1427577782          0.5992
N808       N    0.5040803311    1.0068604119   -0.1982844386         -0.3994
C809       C    0.5019413432    0.9992498615   -0.2234657363         -0.4003
C810       C    0.5003797166    0.9989156520   -0.2472790012          0.5983
C811       C    0.4953182597    1.0021614263   -0.2765410950          0.5938
C812       C    0.5048743439    0.9864835350   -0.3007215598         -0.3974
C813       C    0.4975598794    1.0020326672   -0.3259279138          0.5949
N814       N    0.5032903217    1.0269396037   -0.3145981532           0.596
N815       N    0.5005001155    1.0273163181   -0.2868565529          0.5943
C816       C    0.5098703001    0.9993904293   -0.3551321330          -0.396
H817       H    0.4867243334    1.0397232773   -0.2828039822          0.5826
H818       H    0.5216980750    1.0310038034   -0.3169838535          -0.391
H819       H    0.4964346354    0.9679727795   -0.3009480388          0.5988
H820       H    0.4773041011    1.0009382249   -0.3278506829          0.5801
H821       H    0.5250693110    0.9841489354   -0.2996547640         -0.3822
H822       H    0.4750624323    1.0002876620   -0.2775391098          0.5792
O823       O    0.4978964989    0.9865997732   -0.3784925660          0.5965
C824       C    0.5183346428    1.0205389207   -0.3963655822          -0.393
C825       C    0.5139089441    1.0250160829   -0.3679386611         -0.3965
H826       H    0.4971555553    1.0363732662   -0.3655700730          0.5897
H827       H    0.5374283665    1.0142532339   -0.3994090445         -0.3782
H828       H    0.5153684838    1.0376364002   -0.4069891388         -0.3976
H829       H    0.5295633201    1.0350698707   -0.3596532677         -0.3862
H830       H    0.4819236289    1.0089360307   -0.4074371030          0.5815
C831       C    0.5000000000    1.0000000000   -0.4045521658           0.596
H832       H    0.5282986203    0.9909904743   -0.3529556220         -0.3814
C761       C    0.5000000000    1.0000000000    0.4045521658         -0.4003
C762       C    0.4800911508    1.0008240580    0.3884806856         -0.3998
C763       C    0.4814770290    1.0013651335    0.3630674157         -0.3997
C764       C    0.5027875197    1.0010899862    0.3496635846         -0.4001
C765       C    0.5226288811    1.0002504904    0.3655274281          0.5994
C766       C    0.5214562786    0.9997611392    0.3912278692          0.5994
N767       N    0.5036744842    1.0016315127    0.3241210852            -0.4
H768       H    0.4639081115    1.0019648513    0.3529507671         -0.3994
H769       H    0.4611291869    1.0010886466    0.3957232053         -0.3995
H770       H    0.5388699583    0.9991396675    0.4015260802           0.599
H771       H    0.5411075808    1.0000398864    0.3572422218          0.5992
N772       N    0.4925345020    1.0028250122    0.3017155614         -0.3994
C773       C    0.5004010758    1.0020422193    0.2765342637         -0.4003
C774       C    0.5010017842    1.0005625156    0.2527209988          0.5983
C775       C    0.4986857431    0.9950137003    0.2234589050          0.5938
C776       C    0.5124627531    1.0071507930    0.1992784402         -0.3974
C777       C    0.4984226862    0.9972435520    0.1740720862          0.5949
N778       N    0.4728987033    0.9985549460    0.1854018468           0.596
N779       N    0.4730129918    0.9957417445    0.2131434471          0.5943
C780       C    0.4988836763    1.0098258955    0.1448678670          -0.396
H781       H    0.4631909402    0.9800181281    0.2171960178          0.5826
H782       H    0.4656950342    1.0159753435    0.1830161465          -0.391
H783       H    0.5321592150    1.0020590215    0.1990519612          0.5988
H784       H    0.5030232570    0.9774868036    0.1721493171          0.5801
H785       H    0.5112495431    1.0274440227    0.2003452360         -0.3822
H786       H    0.5040537681    0.9753924402    0.2224608902          0.5792
O787       O    0.5135618464    1.0002590715    0.1215074340          0.5965
C788       C    0.4765853921    1.0144831809    0.1036344178          -0.393
C789       C    0.4729461604    1.0093462768    0.1320613389         -0.3965
H790       H    0.4646757405    0.9908730041    0.1344299270          0.5897
H791       H    0.4794545806    1.0343791075    0.1005909555         -0.3782
H792       H    0.4602643333    1.0085886966    0.0930108612         -0.3976
H793       H    0.4603230385    1.0230135711    0.1403467323         -0.3862
H794       H    0.4943439236    0.9806449842    0.0925628970          0.5815
C795       C    0.5000000000    1.0000000000    0.0954478342           0.596
H796       H    0.5039506369    1.0294342646    0.1470443780         -0.3814
C725       C    0.9045521658    0.5000000000    0.5000000000         -0.4003
C726       C    0.8884806856    0.4825021272    0.5095323553         -0.3998
C727       C    0.8630674157    0.4839844837    0.5094057048         -0.3997
C728       C    0.8496635846    0.5029823161    0.4997467666         -0.4001
C729       C    0.8655274281    0.5204128217    0.4902303677          0.5994
C730       C    0.8912278692    0.5191446568    0.4903092280          0.5994
N731       N    0.8241210852    0.5040172560    0.4998408730            -0.4
H732       H    0.8529507671    0.4684868688    0.5177033222         -0.3994
H733       H    0.8957232053    0.4656066837    0.5181445601         -0.3995
H734       H    0.9015260802    0.5344933875    0.4820606563           0.599
H735       H    0.8572422218    0.5368985331    0.4818800373          0.5992
N736       N    0.8017155614    0.4945498082    0.5058317890         -0.3994
C737       C    0.7765342637    0.5012618125    0.5016550983         -0.4003
C738       C    0.7527209988    0.5011472242    0.5000622257          0.5983
C739       C    0.7234589050    0.4966186043    0.4961068498          0.5938
C740       C    0.6992784402    0.5143395876    0.5009111993         -0.3974
C741       C    0.6740720862    0.4973674404    0.4982236119          0.5949
N742       N    0.6854018468    0.4750470185    0.5106731992           0.596
N743       N    0.7131434471    0.4739070655    0.5080987727          0.5943
C744       C    0.6448678670    0.5033382028    0.5093086413          -0.396
H745       H    0.7171960178    0.4581503542    0.4983299007          0.5826
H746       H    0.6830161465    0.4762779941    0.5294840417          -0.391
H747       H    0.6990519612    0.5297620142    0.4876437389          0.5988
H748       H    0.6721493171    0.4927691335    0.4784663365          0.5801
H749       H    0.7003452360    0.5222139129    0.5196537191         -0.3822
H750       H    0.7224608902    0.4927686825    0.4761321748          0.5792
O751       O    0.6215074340    0.5122818457    0.4942426514          0.5965
C752       C    0.6036344178    0.4853895751    0.5233354211          -0.393
C753       C    0.6320613389    0.4798557409    0.5203340098         -0.3965
H754       H    0.6344299270    0.4642766984    0.5074128998          0.5897
H755       H    0.6005909555    0.4967510740    0.5399184390         -0.3782
H756       H    0.5930108612    0.4681432579    0.5252554330         -0.3976
H757       H    0.6403467323    0.4745668781    0.5381712200         -0.3862
H758       H    0.5925628970    0.4863770609    0.4851331454          0.5815
C759       C    0.5954478342    0.5000000000    0.5000000000           0.596
H760       H    0.6470443780    0.5165444959    0.5246629909         -0.3814
C689       C    1.0954478342    0.5000000000    0.5000000000         -0.4003
C690       C    1.1115193144    0.4816952856    0.5078726604         -0.3998
C691       C    1.1369325843    0.4827105234    0.5067851342         -0.3997
C692       C    1.1503364154    0.5020412958    0.4978110624         -0.4001
C693       C    1.1344725719    0.5202918496    0.4899815248          0.5994
C694       C    1.1087721308    0.5194464991    0.4909301257          0.5994
N695       N    1.1758789148    0.5026065607    0.4969390347            -0.4
H696       H    1.1470492329    0.4666123733    0.5138474343         -0.3994
H697       H    1.1042767947    0.4644863121    0.5158399254         -0.3995
H698       H    1.0984739198    0.5354141143    0.4839546163           0.599
H699       H    1.1427577782    0.5370417920    0.4821747247          0.5992
N700       N    1.1982844386    0.4920472255    0.5006839088         -0.3994
C701       C    1.2234657363    0.4994778044    0.4979853454         -0.4003
C702       C    1.2472790012    0.5006596935    0.4990593620          0.5983
C703       C    1.2765410950    0.5009730019    0.5050639632          0.5938
C704       C    1.3007215598    0.5081408366    0.4881602012         -0.3974
C705       C    1.3259279138    0.4997708834    0.5031675590          0.5949
N706       N    1.3145981532    0.4761931536    0.5130308299           0.596
N707       N    1.2868565529    0.4775136000    0.5155175116          0.5943
C708       C    1.3551321330    0.4947414597    0.4916249087          -0.396
H709       H    1.2828039822    0.4754632841    0.5339430649          0.5826
H710       H    1.3169838535    0.4621602643    0.5004434904          -0.391
H711       H    1.3009480388    0.5281009351    0.4842268543          0.5988
H712       H    1.3278506829    0.5124681001    0.5189876427          0.5801
H713       H    1.2996547640    0.4982652102    0.4703905909         -0.3822
H714       H    1.2775391098    0.5143034564    0.5204297863          0.5792
O715       O    1.3784925660    0.5121140789    0.4938975506          0.5965
C716       C    1.3963655822    0.4726238065    0.4970758902          -0.393
C717       C    1.3679386611    0.4715659854    0.5032817588         -0.3965
H718       H    1.3655700730    0.4721044014    0.5235146963          0.5897
H719       H    1.3994090445    0.4666004518    0.4778977949         -0.3782
H720       H    1.4069891388    0.4604609859    0.5094527921         -0.3976
H721       H    1.3596532677    0.4542715409    0.4964231635         -0.3862
H722       H    1.4074371030    0.5032768574    0.5198964831          0.5815
C723       C    1.4045521658    0.5000000000    0.5000000000           0.596
H724       H    1.3529556220    0.4908238676    0.4717549640         -0.3814
C653       C    0.9045521658    0.5000000000    0.0000000000         -0.4003
C654       C    0.8884806856    0.5193000702   -0.0049546585         -0.3998
C655       C    0.8630674157    0.5178318645   -0.0051950606         -0.3997
C656       C    0.8496635846    0.4970465386   -0.0004851825         -0.4001
C657       C    0.8655274281    0.4778156918    0.0044705115          0.5994
C658       C    0.8912278692    0.4790645252    0.0047047681          0.5994
N659       N    0.8241210852    0.4960662001   -0.0008299914            -0.4
H660       H    0.8529507671    0.5348901203   -0.0094426988         -0.3994
H661       H    0.8957232053    0.5377906266   -0.0091648136         -0.3995
H662       H    0.9015260802    0.4621626324    0.0089413336           0.599
H663       H    0.8572422218    0.4597865409    0.0085271625          0.5992
N664       N    0.8017155614    0.5067129200   -0.0043186871         -0.3994
C665       C    0.7765342637    0.4991821627   -0.0019138086         -0.4003
C666       C    0.7527209988    0.4989029885   -0.0003414106          0.5983
C667       C    0.7234589050    0.5023244714    0.0046029652          0.5938
C668       C    0.6992784402    0.4863207285   -0.0043967702         -0.3974
C669       C    0.6740720862    0.5021170875    0.0023672484          0.5949
N670       N    0.6854018468    0.5268074693   -0.0042341532           0.596
N671       N    0.7131434471    0.5272819167   -0.0014588939          0.5943
C672       C    0.6448678670    0.4990442550   -0.0098428122          -0.396
H673       H    0.7171960178    0.5401648994    0.0118727814          0.5826
H674       H    0.6830161465    0.5302228597   -0.0227732526          -0.391
H675       H    0.6990519612    0.4681177075    0.0046876547          0.5988
H676       H    0.6721493171    0.5017345084    0.0226489641          0.5801
H677       H    0.7003452360    0.4832785151   -0.0244973171         -0.3822
H678       H    0.7224608902    0.5011630525    0.0249120923          0.5792
O679       O    0.6215074340    0.4866818900    0.0025726914          0.5965
C680       C    0.6036344178    0.5198825207   -0.0190444680          -0.393
C681       C    0.6320613389    0.5245123105   -0.0147786929         -0.3965
H682       H    0.6344299270    0.5364507095    0.0015656112          0.5897
H683       H    0.6005909555    0.5129303212   -0.0379057263         -0.3782
H684       H    0.5930108612    0.5370736015   -0.0166804371         -0.3976
H685       H    0.6403467323    0.5340102682   -0.0307764096         -0.3862
H686       H    0.5925628970    0.5095651896    0.0177514784          0.5815
C687       C    0.5954478342    0.5000000000    0.0000000000           0.596
H688       H    0.6470443780    0.4900024535   -0.0279648445         -0.3814
C617       C    1.4045521658    0.5000000000    0.0000000000         -0.4003
C618       C    1.3884806856    0.5101369047   -0.0171547227         -0.3998
C619       C    1.3630674157    0.5089290825   -0.0162860532         -0.3997
C620       C    1.3496635846    0.4975692070    0.0017463052         -0.4001
C621       C    1.3655274281    0.4874819636    0.0188527921          0.5994
C622       C    1.3912278692    0.4885303808    0.0181349602          0.5994
N623       N    1.3241210852    0.4966323654    0.0021960658            -0.4
H624       H    1.3529507671    0.5179815548   -0.0313552028         -0.3994
H625       H    1.3957232053    0.5202282780   -0.0332105711         -0.3995
H626       H    1.4015260802    0.4795805972    0.0330856739           0.599
H627       H    1.3572422218    0.4776081364    0.0344737471          0.5992
N628       N    1.3017155614    0.5016898707   -0.0078011981         -0.3994
C629       C    1.2765342637    0.4980681261   -0.0007741992         -0.4003
C630       C    1.2527209988    0.4989830949    0.0005346956          0.5983
C631       C    1.2234589050    0.5048990788    0.0016091868          0.5938
C632       C    1.1992784402    0.4872209242    0.0065688109         -0.3974
C633       C    1.1740720862    0.5031709745    0.0001756273          0.5949
N634       N    1.1854018468    0.5159529995   -0.0219560987           0.596
N635       N    1.2131434471    0.5182515371   -0.0203300946          0.5943
C636       C    1.1448678670    0.4923617642   -0.0062810632          -0.396
H637       H    1.2171960178    0.5367882245   -0.0200202054          0.5826
H638       H    1.1830161465    0.5052527388   -0.0374760059          -0.391
H639       H    1.1990519612    0.4807807901    0.0258665160          0.5988
H640       H    1.1721493171    0.5172476088    0.0147818837          0.5801
H641       H    1.2003452360    0.4708517175   -0.0054867323         -0.3822
H642       H    1.2224608902    0.5184446001    0.0167857606          0.5792
O643       O    1.1215074340    0.4924063185    0.0112395194          0.5965
C644       C    1.1036344178    0.5005816273   -0.0275257716          -0.393
C645       C    1.1320613389    0.5068716385   -0.0277856746         -0.3965
H646       H    1.1344299270    0.5268717692   -0.0246781965          0.5897
H647       H    1.1005909555    0.4823254030   -0.0359394757         -0.3782
H648       H    1.0930108612    0.5144050017   -0.0380155868         -0.3976
H649       H    1.1403467323    0.5022684334   -0.0458120065         -0.3862
H650       H    1.0925628970    0.5193181056    0.0057808850          0.5815
C651       C    1.0954478342    0.5000000000    0.0000000000           0.596
H652       H    1.1470443780    0.4731514768   -0.0126941036         -0.3814
C581       C    1.0000000000    0.5000000000   -0.0954478342         -0.4003
C582       C    1.0199088492    0.4991759420   -0.1115193144         -0.3998
C583       C    1.0185229710    0.4986348665   -0.1369325843         -0.3997
C584       C    0.9972124803    0.4989100138   -0.1503364154         -0.4001
C585       C    0.9773711189    0.4997495096   -0.1344725719          0.5994
C586       C    0.9785437214    0.5002388608   -0.1087721308          0.5994
N587       N    0.9963255158    0.4983684873   -0.1758789148            -0.4
H588       H    1.0360918885    0.4980351487   -0.1470492329         -0.3994
H589       H    1.0388708131    0.4989113534   -0.1042767947         -0.3995
H590       H    0.9611300417    0.5008603325   -0.0984739198           0.599
H591       H    0.9588924192    0.4999601136   -0.1427577782          0.5992
N592       N    1.0074654980    0.4971749878   -0.1982844386         -0.3994
C593       C    0.9995989242    0.4979577807   -0.2234657363         -0.4003
C594       C    0.9989982158    0.4994374844   -0.2472790012          0.5983
C595       C    1.0013142569    0.5049862997   -0.2765410950          0.5938
C596       C    0.9875372469    0.4928492070   -0.3007215598         -0.3974
C597       C    1.0015773138    0.5027564480   -0.3259279138          0.5949
N598       N    1.0271012967    0.5014450540   -0.3145981532           0.596
N599       N    1.0269870082    0.5042582555   -0.2868565529          0.5943
C600       C    1.0011163237    0.4901741045   -0.3551321330          -0.396
H601       H    1.0368090598    0.5199818719   -0.2828039822          0.5826
H602       H    1.0343049658    0.4840246565   -0.3169838535          -0.391
H603       H    0.9678407850    0.4979409785   -0.3009480388          0.5988
H604       H    0.9969767430    0.5225131964   -0.3278506829          0.5801
H605       H    0.9887504569    0.4725559773   -0.2996547640         -0.3822
H606       H    0.9959462319    0.5246075598   -0.2775391098          0.5792
O607       O    0.9864381536    0.4997409285   -0.3784925660          0.5965
C608       C    1.0234146079    0.4855168191   -0.3963655822          -0.393
C609       C    1.0270538396    0.4906537232   -0.3679386611         -0.3965
H610       H    1.0353242595    0.5091269959   -0.3655700730          0.5897
H611       H    1.0205454194    0.4656208925   -0.3994090445         -0.3782
H612       H    1.0397356667    0.4914113034   -0.4069891388         -0.3976
H613       H    1.0396769615    0.4769864289   -0.3596532677         -0.3862
H614       H    1.0056560764    0.5193550158   -0.4074371030          0.5815
C615       C    1.0000000000    0.5000000000   -0.4045521658           0.596
H616       H    0.9960493631    0.4705657354   -0.3529556220         -0.3814
C545       C    1.0000000000    0.5000000000    0.0954478342         -0.4003
C546       C    0.9800911508    0.4991759420    0.1115193144         -0.3998
C547       C    0.9814770290    0.4986348665    0.1369325843         -0.3997
C548       C    1.0027875197    0.4989100138    0.1503364154         -0.4001
C549       C    1.0226288811    0.4997495096    0.1344725719          0.5994
C550       C    1.0214562786    0.5002388608    0.1087721308          0.5994
N551       N    1.0036744842    0.4983684873    0.1758789148            -0.4
H552       H    0.9639081115    0.4980351487    0.1470492329         -0.3994
H553       H    0.9611291869    0.4989113534    0.1042767947         -0.3995
H554       H    1.0388699583    0.5008603325    0.0984739198           0.599
H555       H    1.0411075808    0.4999601136    0.1427577782          0.5992
N556       N    0.9925345020    0.4971749878    0.1982844386         -0.3994
C557       C    1.0004010758    0.4979577807    0.2234657363         -0.4003
C558       C    1.0010017842    0.4994374844    0.2472790012          0.5983
C559       C    0.9986857431    0.5049862997    0.2765410950          0.5938
C560       C    1.0124627531    0.4928492070    0.3007215598         -0.3974
C561       C    0.9984226862    0.5027564480    0.3259279138          0.5949
N562       N    0.9728987033    0.5014450540    0.3145981532           0.596
N563       N    0.9730129918    0.5042582555    0.2868565529          0.5943
C564       C    0.9988836763    0.4901741045    0.3551321330          -0.396
H565       H    0.9631909402    0.5199818719    0.2828039822          0.5826
H566       H    0.9656950342    0.4840246565    0.3169838535          -0.391
H567       H    1.0321592150    0.4979409785    0.3009480388          0.5988
H568       H    1.0030232570    0.5225131964    0.3278506829          0.5801
H569       H    1.0112495431    0.4725559773    0.2996547640         -0.3822
H570       H    1.0040537681    0.5246075598    0.2775391098          0.5792
O571       O    1.0135618464    0.4997409285    0.3784925660          0.5965
C572       C    0.9765853921    0.4855168191    0.3963655822          -0.393
C573       C    0.9729461604    0.4906537232    0.3679386611         -0.3965
H574       H    0.9646757405    0.5091269959    0.3655700730          0.5897
H575       H    0.9794545806    0.4656208925    0.3994090445         -0.3782
H576       H    0.9602643333    0.4914113034    0.4069891388         -0.3976
H577       H    0.9603230385    0.4769864289    0.3596532677         -0.3862
H578       H    0.9943439236    0.5193550158    0.4074371030          0.5815
C579       C    1.0000000000    0.5000000000    0.4045521658           0.596
H580       H    1.0039506369    0.4705657354    0.3529556220         -0.3814
C509       C    1.0000000000   -0.0954478342    0.5000000000         -0.4003
C510       C    1.0049163367   -0.1115193144    0.4806901325         -0.3998
C511       C    1.0051596528   -0.1369325843    0.4821578581         -0.3997
C512       C    1.0004910444   -0.1503364154    0.5029524925         -0.4001
C513       C    0.9955735347   -0.1344725719    0.5221931388          0.5994
C514       C    0.9953367996   -0.1087721308    0.5209447729          0.5994
N515       N    1.0008377987   -0.1758789148    0.5039321446            -0.4
H516       H    1.0093734208   -0.1470492329    0.4650912040         -0.3994
H517       H    1.0090897784   -0.1042767947    0.4621912551         -0.3995
H518       H    0.9911337939   -0.0984739198    0.5378550422           0.599
H519       H    0.9915526809   -0.1427577782    0.5402303069          0.5992
N520       N    1.0043053530   -0.1982844386    0.4932785203         -0.3994
C521       C    1.0019154283   -0.2234657363    0.5008140367         -0.4003
C522       C    1.0003435876   -0.2472790012    0.5010963316          0.5983
C523       C    0.9953924297   -0.2765410950    0.4976846703          0.5938
C524       C    1.0044239159   -0.3007215598    0.5136705166         -0.3974
C525       C    0.9976285537   -0.3259279138    0.4978876158          0.5949
N526       N    1.0041809301   -0.3145981532    0.4731841784           0.596
N527       N    1.0014047345   -0.2868565529    0.4727152410          0.5943
C528       C    1.0098446900   -0.3551321330    0.5009362044         -0.3952
H529       H    0.9880475117   -0.2828039822    0.4598587480          0.5826
H530       H    1.0227132132   -0.3169838535    0.4697319933          -0.391
H531       H    0.9953756432   -0.3009480388    0.5318915350          0.5988
H532       H    0.9773476374   -0.3278506829    0.4983104548          0.5801
H533       H    1.0245304622   -0.2996547640    0.5166728230         -0.3822
H534       H    0.9750856480   -0.2775391098    0.4988864021          0.5792
O535       O    0.9974537511   -0.3784925660    0.5133231908          0.5965
C536       C    1.0190049623   -0.3963655822    0.4800797139          -0.393
C537       C    1.0147300051   -0.3679386611    0.4754584011         -0.3965
H538       H    0.9983620346   -0.3655700730    0.4635524702          0.5897
H539       H    1.0378799840   -0.3994090445    0.4869944587         -0.3782
H540       H    1.0166068105   -0.4069891388    0.4628933596         -0.3976
H541       H    1.0307088361   -0.3596532677    0.4659287054         -0.3862
H542       H    0.9822295690   -0.4074371030    0.4904700672          0.5815
C543       C    1.0000000000   -0.4045521658    0.5000000000           0.596
H544       H    1.0279846353   -0.3529556220    0.5099420146         -0.3814
C473       C    1.0000000000    0.4045521658    0.5000000000         -0.4003
C474       C    0.9950836633    0.3884806856    0.5193098675         -0.3998
C475       C    0.9948403472    0.3630674157    0.5178421419         -0.3997
C476       C    0.9995089556    0.3496635846    0.4970475075         -0.4001
C477       C    1.0044264653    0.3655274281    0.4778068612          0.5994
C478       C    1.0046632004    0.3912278692    0.4790552271          0.5994
N479       N    0.9991622013    0.3241210852    0.4960678554            -0.4
H480       H    0.9906265792    0.3529507671    0.5349087960         -0.3994
H481       H    0.9909102216    0.3957232053    0.5378087449         -0.3995
H482       H    1.0088662061    0.4015260802    0.4621449578           0.599
H483       H    1.0084473191    0.3572422218    0.4597696931          0.5992
N484       N    0.9956946470    0.3017155614    0.5067214797         -0.3994
C485       C    0.9980845717    0.2765342637    0.4991859633         -0.4003
C486       C    0.9996564124    0.2527209988    0.4989036684          0.5983
C487       C    1.0046075703    0.2234589050    0.5023153297          0.5938
C488       C    0.9955760841    0.1992784402    0.4863294834         -0.3974
C489       C    1.0023714463    0.1740720862    0.5021123842          0.5949
N490       N    0.9958190699    0.1854018468    0.5268158216           0.596
N491       N    0.9985952655    0.2131434471    0.5272847590          0.5943
C492       C    0.9901553100    0.1448678670    0.4990637956          -0.396
H493       H    1.0119524883    0.2171960178    0.5401412520          0.5826
H494       H    0.9772867868    0.1830161465    0.5302680067          -0.391
H495       H    1.0046243568    0.1990519612    0.4681084650          0.5988
H496       H    1.0226523626    0.1721493171    0.5016895452          0.5801
H497       H    0.9754695378    0.2003452360    0.4833271770         -0.3822
H498       H    1.0249143520    0.2224608902    0.5011135979          0.5792
O499       O    1.0025462489    0.1215074340    0.4866768092          0.5965
C500       C    0.9809950377    0.1036344178    0.5199202861          -0.393
C501       C    0.9852699949    0.1320613389    0.5245415989         -0.3965
H502       H    1.0016379654    0.1344299270    0.5364475298          0.5897
H503       H    0.9621200160    0.1005909555    0.5130055413         -0.3782
H504       H    0.9833931895    0.0930108612    0.5371066404         -0.3976
H505       H    0.9692911639    0.1403467323    0.5340712946         -0.3862
H506       H    1.0177704310    0.0925628970    0.5095299328          0.5815
C507       C    1.0000000000    0.0954478342    0.5000000000           0.596
H508       H    0.9720153647    0.1470443780    0.4900579854         -0.3814
C437       C    0.9045521658   -0.0000000000    0.5000000000         -0.4003
C438       C    0.8884806856    0.0087317058    0.5179108532         -0.3998
C439       C    0.8630674157    0.0086721875    0.5164242872         -0.3997
C440       C    0.8496635846   -0.0001181734    0.4970092858         -0.4001
C441       C    0.8655274281   -0.0088369841    0.4791664521          0.5994
C442       C    0.8912278692   -0.0088155257    0.4804368854          0.5994
N443       N    0.8241210852    0.0000226163    0.4959796572            -0.4
H444       H    0.8529507671    0.0162608295    0.5322811165         -0.3994
H445       H    0.8957232053    0.0165714315    0.5351783019         -0.3995
H446       H    0.9015260802   -0.0163619016    0.4647310050           0.599
H447       H    0.8572422218   -0.0164336231    0.4623201536          0.5992
N448       N    0.8017155614    0.0055794790    0.5057082193         -0.3994
C449       C    0.7765342637    0.0017104409    0.4988142878         -0.4003
C450       C    0.7527209988    0.0001140169    0.4988567610          0.5983
C451       C    0.7234589050   -0.0040420109    0.5032019687          0.5938
C452       C    0.6992784402    0.0015584198    0.4857162546         -0.3974
C453       C    0.6740720862   -0.0018935647    0.5025495759          0.5949
N454       N    0.6854018468    0.0095344115    0.5254099087           0.596
N455       N    0.7131434471    0.0069110902    0.5264323321          0.5943
C456       C    0.6448678670    0.0094500148    0.4970859613          -0.396
H457       H    0.7171960178   -0.0035600036    0.5417313846          0.5826
H458       H    0.6830161465    0.0283816688    0.5250304447          -0.391
H459       H    0.6990519612   -0.0109983841    0.4697098989          0.5988
H460       H    0.6721493171   -0.0218384915    0.5062501508          0.5801
H461       H    0.7003452360    0.0206377047    0.4786971423         -0.3822
H462       H    0.7224608902   -0.0241702879    0.5061450969          0.5792
O463       O    0.6215074340   -0.0051963227    0.4874704738          0.5965
C464       C    0.6036344178    0.0226511773    0.5156502574          -0.393
C465       C    0.6320613389    0.0194027034    0.5210427714         -0.3965
H466       H    0.6344299270    0.0057906240    0.5360218550          0.5897
H467       H    0.6005909555    0.0397307883    0.5050499258         -0.3782
H468       H    0.5930108612    0.0237896904    0.5329657329         -0.3976
H469       H    0.6403467323    0.0369826256    0.5271324738         -0.3862
H470       H    0.5925628970   -0.0154674191    0.5129370314          0.5815
C471       C    0.5954478342   -0.0000000000    0.5000000000           0.596
H472       H    0.6470443780    0.0253855982    0.4845871849         -0.3814
C401       C    1.4045521658   -0.0000000000    0.5000000000         -0.4003
C402       C    1.3884806856    0.0040007322    0.4804798696         -0.3998
C403       C    1.3630674157    0.0031414546    0.4816943913         -0.3997
C404       C    1.3496635846   -0.0017299602    0.5024424525         -0.4001
C405       C    1.3655274281   -0.0056994371    0.5219008087          0.5994
C406       C    1.3912278692   -0.0049417833    0.5208807980          0.5994
N407       N    1.3241210852   -0.0024693759    0.5031726724            -0.4
H408       H    1.3529507671    0.0067956971    0.4644992457         -0.3994
H409       H    1.3957232053    0.0083161109    0.4620135871         -0.3995
H410       H    1.4015260802   -0.0085374823    0.5379305316           0.599
H411       H    1.3572422218   -0.0099506816    0.5398850690          0.5992
N412       N    1.3017155614   -0.0009415579    0.4920735996         -0.3994
C413       C    1.2765342637   -0.0020786713    0.4998968164         -0.4003
C414       C    1.2527209988   -0.0007874713    0.5008365909          0.5983
C415       C    1.2234589050    0.0051560743    0.4999268310          0.5938
C416       C    1.1992784402   -0.0099448593    0.5103708163         -0.3974
C417       C    1.1740720862    0.0030554442    0.4991338677          0.5949
N418       N    1.1854018468    0.0079371558    0.4740467724           0.596
N419       N    1.2131434471    0.0106397951    0.4748360156          0.5943
C420       C    1.1448678670   -0.0092668078    0.4965473671          -0.396
H421       H    1.2171960178    0.0282678003    0.4690950886          0.5826
H422       H    1.1830161465   -0.0072322781    0.4628551964          -0.391
H423       H    1.1990519612   -0.0097525870    0.5307138686          0.5988
H424       H    1.1721493171    0.0211199602    0.5083624981          0.5801
H425       H    1.2003452360   -0.0293467972    0.5043002435         -0.3822
H426       H    1.2224608902    0.0229040490    0.5098676022          0.5792
O427       O    1.1215074340   -0.0035214969    0.5130992311          0.5965
C428       C    1.1036344178   -0.0084100551    0.4737840247          -0.393
C429       C    1.1320613389   -0.0025472158    0.4714907941         -0.3965
H430       H    1.1344299270    0.0173751824    0.4679187220          0.5897
H431       H    1.1005909555   -0.0284107717    0.4717711966         -0.3782
H432       H    1.0930108612    0.0012458885    0.4593658189         -0.3976
H433       H    1.1403467323   -0.0127675300    0.4559446268         -0.3862
H434       H    1.0925628970    0.0201477475    0.4991777424          0.5815
C435       C    1.0954478342   -0.0000000000    0.5000000000           0.596
H436       H    1.1470443780   -0.0295183841    0.4967368017         -0.3814
C365       C   -0.0000000000   -0.0954478342    0.0000000000         -0.4003
C366       C    0.0198410310   -0.1115193144   -0.0018370735         -0.3998
C367       C    0.0185396435   -0.1369325843   -0.0011160939         -0.3997
C368       C   -0.0026173533   -0.1503364154    0.0014518258         -0.4001
C369       C   -0.0223935564   -0.1344725719    0.0032646033          0.5994
C370       C   -0.0212966468   -0.1087721308    0.0026233153          0.5994
N371       N   -0.0034242191   -0.1758789148    0.0021067489            -0.4
H372       H    0.0360317200   -0.1470492329   -0.0028636012         -0.3994
H373       H    0.0386690512   -0.1042767947   -0.0041024075         -0.3995
H374       H   -0.0386377705   -0.0984739198    0.0043285701           0.599
H375       H   -0.0407354291   -0.1427577782    0.0055190227          0.5992
N376       N    0.0077754415   -0.1982844386    0.0018046784         -0.3994
C377       C   -0.0001252762   -0.2234657363    0.0020774569         -0.4003
C378       C   -0.0009178632   -0.2472790012    0.0006910300          0.5983
C379       C    0.0006378730   -0.2765410950   -0.0051169887          0.5938
C380       C   -0.0113983633   -0.3007215598    0.0087482210         -0.3974
C381       C    0.0011958136   -0.3259279138   -0.0029421003          0.5949
N382       N    0.0266668302   -0.3145981532   -0.0050446638           0.596
N383       N    0.0261785719   -0.2868565529   -0.0078175266          0.5943
C384       C    0.0024161183   -0.3551321330    0.0095894094          -0.396
H385       H    0.0338170723   -0.2828039822   -0.0247100730          0.5826
H386       H    0.0361282915   -0.3169838535    0.0112600548          -0.391
H387       H   -0.0315977731   -0.3009480388    0.0063273546          0.5988
H388       H   -0.0059972060   -0.3278506829   -0.0219093043          0.5801
H389       H   -0.0074909654   -0.2996547640    0.0286986418         -0.3822
H390       H   -0.0072976921   -0.2775391098   -0.0238476146          0.5792
O391       O   -0.0134062901   -0.3784925660    0.0020645048          0.5965
C392       C    0.0251362168   -0.3963655822    0.0112328534          -0.393
C393       C    0.0280582421   -0.3679386611    0.0056566934         -0.3965
H394       H    0.0337924379   -0.3655700730   -0.0137541450          0.5897
H395       H    0.0249446876   -0.3994090445    0.0313336856         -0.3782
H396       H    0.0405259165   -0.4069891388    0.0032154319         -0.3976
H397       H    0.0423905190   -0.3596532677    0.0175194072         -0.3862
H398       H    0.0030256490   -0.4074371030   -0.0199362304          0.5815
C399       C    0.0000000000   -0.4045521658    0.0000000000           0.596
H400       H    0.0000080990   -0.3529556220    0.0296982053         -0.3814
C329       C   -0.0000000000    0.4045521658    0.0000000000         -0.4003
C330       C   -0.0194810164    0.3884806856    0.0041870453         -0.3998
C331       C   -0.0182747597    0.3630674157    0.0033162033         -0.3997
C332       C    0.0024258129    0.3496635846   -0.0017532165         -0.4001
C333       C    0.0218453566    0.3655274281   -0.0059084178          0.5994
C334       C    0.0208326311    0.3912278692   -0.0051410533          0.5994
N335       N    0.0031489351    0.3241210852   -0.0024995750            -0.4
H336       H   -0.0354342078    0.3529507671    0.0071345618         -0.3994
H337       H   -0.0379052269    0.3957232053    0.0086786543         -0.3995
H338       H    0.0378472331    0.4015260802   -0.0088994817           0.599
H339       H    0.0397881796    0.3572422218   -0.0103312902          0.5992
N340       N   -0.0079350343    0.3017155614   -0.0008657859         -0.3994
C341       C   -0.0001230386    0.2765342637   -0.0020775906         -0.4003
C342       C    0.0008290292    0.2527209988   -0.0007954282          0.5983
C343       C   -0.0000239045    0.2234589050    0.0051565380          0.5938
C344       C    0.0102753295    0.1992784402   -0.0100434884         -0.3974
C345       C   -0.0008369010    0.1740720862    0.0030635798          0.5949
N346       N   -0.0258762113    0.1854018468    0.0081847512           0.596
N347       N   -0.0250611831    0.2131434471    0.0108797267          0.5943
C348       C   -0.0035410106    0.1448678670   -0.0092333983          -0.396
H349       H   -0.0306334297    0.2171960178    0.0285617763          0.5826
H350       H   -0.0372122056    0.1830161465   -0.0068770659          -0.391
H351       H    0.0306192904    0.1990519612   -0.0100455828          0.5988
H352       H    0.0085638969    0.1721493171    0.0210391008          0.5801
H353       H    0.0040196674    0.2003452360   -0.0293865424         -0.3822
H354       H    0.0100859775    0.2224608902    0.0228087284          0.5792
O355       O    0.0130649888    0.1215074340   -0.0036464865          0.5965
C356       C   -0.0262951287    0.1036344178   -0.0081592034          -0.393
C357       C   -0.0285322409    0.1320613389   -0.0022747221         -0.3965
H358       H   -0.0319138110    0.1344299270    0.0176808945          0.5897
H359       H   -0.0284989521    0.1005909555   -0.0281397765         -0.3782
H360       H   -0.0406204233    0.0930108612    0.0016340514         -0.3976
H361       H   -0.0441753437    0.1403467323   -0.0123460414         -0.3862
H362       H   -0.0006297281    0.0925628970    0.0201546838          0.5815
C363       C    0.0000000000    0.0954478342    0.0000000000           0.596
H364       H   -0.0035450686    0.1470443780   -0.0294858602         -0.3814
C293       C   -0.4045521658   -0.0000000000    0.0000000000         -0.4003
C294       C   -0.3884806856   -0.0078868673   -0.0182985976         -0.3998
C295       C   -0.3630674157   -0.0067985533   -0.0172842043         -0.3997
C296       C   -0.3496635846    0.0021905216    0.0020395959         -0.4001
C297       C   -0.3655274281    0.0100342240    0.0202840665          0.5994
C298       C   -0.3912278692    0.0090849671    0.0194394527          0.5994
N299       N   -0.3241210852    0.0030629877    0.0026041839            -0.4
H300       H   -0.3529507671   -0.0138733477   -0.0333768674         -0.3994
H301       H   -0.3957232053   -0.0158674885   -0.0355013813         -0.3995
H302       H   -0.4015260802    0.0160728695    0.0354016482           0.599
H303       H   -0.3572422218    0.0178540240    0.0370279437          0.5992
N304       N   -0.3017155614   -0.0006900820   -0.0079522412         -0.3994
C305       C   -0.2765342637    0.0020142486   -0.0005237594         -0.4003
C306       C   -0.2527209988    0.0009411498    0.0006589631          0.5983
C307       C   -0.2234589050   -0.0050632064    0.0009769325          0.5938
C308       C   -0.1992784402    0.0118461146    0.0081316434         -0.3974
C309       C   -0.1740720862   -0.0031677359   -0.0002266577          0.5949
N310       N   -0.1854018468   -0.0130493064   -0.0237967239           0.596
N311       N   -0.2131434471   -0.0155349623   -0.0224743475          0.5943
C312       C   -0.1448678670    0.0083710068   -0.0052650400          -0.396
H313       H   -0.2171960178   -0.0339621016   -0.0245103598          0.5826
H314       H   -0.1830161465   -0.0004728638   -0.0378393801          -0.391
H315       H   -0.1990519612    0.0157949547    0.0280886825          0.5988
H316       H   -0.1721493171   -0.0189779584    0.0124828357          0.5801
H317       H   -0.2003452360    0.0296080535   -0.0017577739         -0.3822
H318       H   -0.2224608902   -0.0204186769    0.0143193110          0.5792
O319       O   -0.1215074340    0.0061118512    0.0121093381          0.5965
C320       C   -0.1036344178    0.0029028578   -0.0273784552          -0.393
C321       C   -0.1320613389   -0.0033038301   -0.0284314586         -0.3965
H322       H   -0.1344299270   -0.0235363435   -0.0278773366          0.5897
H323       H   -0.1005909555    0.0220762716   -0.0334166953         -0.3782
H324       H   -0.0930108612   -0.0094834819   -0.0395316643         -0.3976
H325       H   -0.1403467323    0.0035413381   -0.0457312219         -0.3862
H326       H   -0.0925628970   -0.0198939334    0.0032923013          0.5815
C327       C   -0.0954478342   -0.0000000000    0.0000000000           0.596
H328       H   -0.1470443780    0.0282379044   -0.0091980552         -0.3814
C257       C    0.4045521658   -0.0000000000    0.0000000000         -0.4003
C258       C    0.3884806856    0.0194626536    0.0042715879         -0.3998
C259       C    0.3630674157    0.0182601892    0.0033955168         -0.3997
C260       C    0.3496635846   -0.0024181780   -0.0017637322         -0.4001
C261       C    0.3655274281   -0.0218194977   -0.0060032095          0.5994
C262       C    0.3912278692   -0.0208101135   -0.0052314553          0.5994
N263       N    0.3241210852   -0.0031380528   -0.0025132234            -0.4
H264       H    0.3529507671    0.0354028972    0.0072883416         -0.3994
H265       H    0.3957232053    0.0378671889    0.0088431481         -0.3995
H266       H    0.4015260802   -0.0378082369   -0.0090637217           0.599
H267       H    0.3572422218   -0.0397429485   -0.0105039438          0.5992
N268       N    0.3017155614    0.0079387185   -0.0008313257         -0.3994
C269       C    0.2765342637    0.0001320578   -0.0020770368         -0.4003
C270       C    0.2527209988   -0.0008255678   -0.0007990201          0.5983
C271       C    0.2234589050    0.0000015158    0.0051565932          0.5938
C272       C    0.1992784402   -0.0102316262   -0.0100880068         -0.3974
C273       C    0.1740720862    0.0008235918    0.0030671845          0.5949
N274       N    0.1854018468    0.0258404312    0.0082970225           0.596
N275       N    0.2131434471    0.0250137096    0.0109884340          0.5943
C276       C    0.1448678670    0.0035810665   -0.0092179371          -0.396
H277       H    0.2171960178    0.0305091324    0.0286945103          0.5826
H278       H    0.1830161465    0.0372417135   -0.0067154343          -0.391
H279       H    0.1990519612   -0.0305753862   -0.0101784300          0.5988
H280       H    0.1721493171   -0.0086551631    0.0210017201          0.5801
H281       H    0.2003452360   -0.0038920400   -0.0294037179         -0.3822
H282       H    0.2224608902   -0.0101849126    0.0227647224          0.5792
O283       O    0.1215074340   -0.0130490334   -0.0037031772          0.5965
C284       C    0.1036344178    0.0263303062   -0.0080449591          -0.393
C285       C    0.1320613389    0.0285418482   -0.0021508203         -0.3965
H286       H    0.1344299270    0.0318367439    0.0178192902          0.5897
H287       H    0.1005909555    0.0286208598   -0.0280157754         -0.3782
H288       H    0.0930108612    0.0406129458    0.0018104004         -0.3976
H289       H    0.1403467323    0.0442285310   -0.0121541259         -0.3862
H290       H    0.0925628970    0.0005422152    0.0201572279          0.5815
C291       C    0.0954478342   -0.0000000000    0.0000000000           0.596
H292       H    0.1470443780    0.0036730559   -0.0294701905         -0.3814
C221       C    0.0000000000    0.0000000000   -0.0954478342         -0.4003
C222       C    0.0199044120   -0.0009250579   -0.1115193144         -0.3998
C223       C    0.0185158064   -0.0014590949   -0.1369325843         -0.3997
C224       C   -0.0027930141   -0.0010758293   -0.1503364154         -0.4001
C225       C   -0.0226298607   -0.0001356762   -0.1344725719          0.5994
C226       C   -0.0214547906    0.0003477193   -0.1087721308          0.5994
N227       N   -0.0036827146   -0.0016128486   -0.1758789148            -0.4
H228       H    0.0360814550   -0.0021479434   -0.1470492329         -0.3994
H229       H    0.0388647894   -0.0012858493   -0.1042767947         -0.3995
H230       H   -0.0388650930    0.0010575339   -0.0984739198           0.599
H231       H   -0.0411072541    0.0001686795   -0.1427577782          0.5992
N232       N    0.0074510688   -0.0028628531   -0.1982844386         -0.3994
C233       C   -0.0004114321   -0.0020401581   -0.2234657363         -0.4003
C234       C   -0.0010046253   -0.0005574257   -0.2472790012          0.5983
C235       C    0.0013395387    0.0049795674   -0.2765410950          0.5938
C236       C   -0.0124988733   -0.0070874694   -0.3007215598         -0.3974
C237       C    0.0015912788    0.0027484098   -0.3259279138          0.5949
N238       N    0.0271082796    0.0013075330   -0.3145981532           0.596
N239       N    0.0270082657    0.0041212781   -0.2868565529          0.5943
C240       C    0.0010664562   -0.0098314328   -0.3551321330          -0.396
H241       H    0.0369099669    0.0197948586   -0.2828039822          0.5826
H242       H    0.0342234711   -0.0161491892   -0.3169838535          -0.391
H243       H   -0.0321692478   -0.0018958305   -0.3009480388          0.5988
H244       H   -0.0029089941    0.0225282456   -0.3278506829          0.5801
H245       H   -0.0113886396   -0.0273865933   -0.2996547640         -0.3822
H246       H   -0.0039288659    0.0246278104   -0.2775391098          0.5792
O247       O   -0.0135629863   -0.0001902601   -0.3784925660          0.5965
C248       C    0.0233408240   -0.0146017919   -0.3963655822          -0.393
C249       C    0.0270060717   -0.0094834181   -0.3679386611         -0.3965
H250       H    0.0353701120    0.0089476556   -0.3655700730          0.5897
H251       H    0.0203707275   -0.0344829052   -0.3994090445         -0.3782
H252       H    0.0396915792   -0.0087901907   -0.4069891388         -0.3976
H253       H    0.0395596881   -0.0232145818   -0.3596532677         -0.3862
H254       H    0.0057542041    0.0193260697   -0.4074371030          0.5815
C255       C   -0.0000000000    0.0000000000   -0.4045521658           0.596
H256       H   -0.0040999251   -0.0294138416   -0.3529556220         -0.3814
C185       C   -0.0000000000    0.0000000000    0.0954478342         -0.4003
C186       C    0.0176368779    0.0092726418    0.1115193144         -0.3998
C187       C    0.0161528112    0.0091679189    0.1369325843         -0.3997
C188       C   -0.0029857337   -0.0002091181    0.1503364154         -0.4001
C189       C   -0.0205550160   -0.0094668011    0.1344725719          0.5994
C190       C   -0.0192858239   -0.0094066968    0.1087721308          0.5994
N191       N   -0.0040191694   -0.0000997223    0.1758789148            -0.4
H192       H    0.0317713966    0.0172355277    0.1470492329         -0.3994
H193       H    0.0346577897    0.0176341395    0.1042767947         -0.3995
H194       H   -0.0347548163   -0.0174274661    0.0984739198           0.599
H195       H   -0.0371623692   -0.0175725101    0.1427577782          0.5992
N196       N    0.0055358078    0.0057505813    0.1982844386         -0.3994
C197       C   -0.0012372072    0.0016735709    0.2234657363         -0.4003
C198       C   -0.0011461789    0.0000791784    0.2472790012          0.5983
C199       C    0.0033234736   -0.0039427121    0.2765410950          0.5938
C200       C   -0.0143245503    0.0011230824    0.3007215598         -0.3974
C201       C    0.0026060115   -0.0018151112    0.3259279138          0.5949
N202       N    0.0251080371    0.0103031519    0.3145981532           0.596
N203       N    0.0262098077    0.0077121548    0.2868565529          0.5943
C204       C   -0.0032002279    0.0093569729    0.3551321330          -0.396
H205       H    0.0418203835   -0.0022885819    0.2828039822          0.5826
H206       H    0.0241552776    0.0291301364    0.3169838535          -0.391
H207       H   -0.0299414251   -0.0119149378    0.3009480388          0.5988
H208       H    0.0069117433   -0.0216382046    0.3278506829          0.5801
H209       H   -0.0219209438    0.0199799606    0.2996547640         -0.3822
H210       H    0.0068776882   -0.0239721179    0.2775391098          0.5792
O211       O   -0.0123656147   -0.0055751564    0.3784925660          0.5965
C212       C    0.0149537968    0.0231168845    0.3963655822          -0.393
C213       C    0.0204426564    0.0200339944    0.3679386611         -0.3965
H214       H    0.0358289832    0.0068839907    0.3655700730          0.5897
H215       H    0.0038386869    0.0398660479    0.3994090445         -0.3782
H216       H    0.0322266131    0.0247817336    0.4069891388         -0.3976
H217       H    0.0259946295    0.0377910699    0.3596532677         -0.3862
H218       H    0.0134016731   -0.0150666185    0.4074371030          0.5815
C219       C   -0.0000000000    0.0000000000    0.4045521658           0.596
H220       H   -0.0161780939    0.0249048739    0.3529556220         -0.3814
loop_
_geom_bond_atom_site_label_1
_geom_bond_atom_site_label_2
_geom_bond_distance
_geom_bond_site_symmetry_2
_ccdc_geom_bond_type
Zn1          O5 1.942       .   S
Zn1          O6 1.922       .   S
Zn1         O10 1.922       .   S
Zn1         O17 1.922       .   S
Zn2          O5 1.942       .   S
Zn2          O7 1.922       .   S
Zn2          O9 1.922       .   S
Zn2         O13 1.922       .   S
Zn3          O5 1.942       .   S
Zn3          O8 1.922       .   S
Zn3         O11 1.922       .   S
Zn3         O14 1.922       .   S
Zn4          O5 1.942       .   S
Zn4         O12 1.922       .   S
Zn4         O15 1.922       .   S
Zn4         O16 1.922       .   S
O6          C18 1.304       .   A
O7          C19 1.304       .   A
O8          C20 1.304       .   A
O9          C18 1.304       .   A
O10         C20 1.304       .   A
O11         C19 1.304       .   A
O12         C21 1.304       .   A
O13         C22 1.304       .   A
O14         C21 1.304       .   A
O15         C22 1.304       .   A
O16         C23 1.304       .   A
O17         C23 1.304       .   A
C18        C185 1.540       .   S
C19        C291 1.540       .   S
C20        C365 1.540       .   S
C21        C221 1.540       .   S
C22        C363 1.540       .   S
C23        C327 1.540       .   S
Zn24        O28 1.942       .   S
Zn24        O29 1.922       .   S
Zn24        O33 1.922       .   S
Zn24        O40 1.922       .   S
Zn25        O28 1.942       .   S
Zn25        O30 1.922       .   S
Zn25        O32 1.922       .   S
Zn25        O36 1.922       .   S
Zn26        O28 1.942       .   S
Zn26        O31 1.922       .   S
Zn26        O34 1.922       .   S
Zn26        O37 1.922       .   S
Zn27        O28 1.942       .   S
Zn27        O35 1.922       .   S
Zn27        O38 1.922       .   S
Zn27        O39 1.922       .   S
O29         C41 1.304       .   A
O30         C42 1.304       .   A
O31         C43 1.304       .   A
O32         C41 1.304       .   A
O33         C43 1.304       .   A
O34         C42 1.304       .   A
O35         C44 1.304       .   A
O36         C45 1.304       .   A
O37         C44 1.304       .   A
O38         C45 1.304       .   A
O39         C46 1.304       .   A
O40         C46 1.304       .   A
C41        C219 1.540   1_655   S
C42        C435 1.540       .   S
C43        C507 1.540       .   S
C44        C255 1.540   1_656   S
C45        C509 1.540       .   S
C46        C437 1.540       .   S
Zn47        O51 1.942       .   S
Zn47        O52 1.922       .   S
Zn47        O56 1.922       .   S
Zn47        O63 1.922       .   S
Zn48        O51 1.942       .   S
Zn48        O53 1.922       .   S
Zn48        O55 1.922       .   S
Zn48        O59 1.922       .   S
Zn49        O51 1.942       .   S
Zn49        O54 1.922       .   S
Zn49        O57 1.922       .   S
Zn49        O60 1.922       .   S
Zn50        O51 1.942       .   S
Zn50        O58 1.922       .   S
Zn50        O61 1.922       .   S
Zn50        O62 1.922       .   S
O52         C64 1.304       .   A
O53         C65 1.304       .   A
O54         C66 1.304       .   A
O55         C64 1.304       .   A
O56         C66 1.304       .   A
O57         C65 1.304       .   A
O58         C67 1.304       .   A
O59         C68 1.304       .   A
O60         C67 1.304       .   A
O61         C68 1.304       .   A
O62         C69 1.304       .   A
O63         C69 1.304       .   A
C64        C651 1.540       .   S
C65        C329 1.540   1_655   S
C66        C545 1.540       .   S
C67        C653 1.540       .   S
C68        C581 1.540       .   S
C69        C399 1.540   1_665   S
Zn70        O74 1.942       .   S
Zn70        O75 1.922       .   S
Zn70        O79 1.922       .   S
Zn70        O86 1.922       .   S
Zn71        O74 1.942       .   S
Zn71        O76 1.922       .   S
Zn71        O78 1.922       .   S
Zn71        O82 1.922       .   S
Zn72        O74 1.942       .   S
Zn72        O77 1.922       .   S
Zn72        O80 1.922       .   S
Zn72        O83 1.922       .   S
Zn73        O74 1.942       .   S
Zn73        O81 1.922       .   S
Zn73        O84 1.922       .   S
Zn73        O85 1.922       .   S
O75         C87 1.304       .   A
O76         C88 1.304       .   A
O77         C89 1.304       .   A
O78         C87 1.304       .   A
O79         C89 1.304       .   A
O80         C88 1.304       .   A
O81         C90 1.304       .   A
O82         C91 1.304       .   A
O83         C90 1.304       .   A
O84         C91 1.304       .   A
O85         C92 1.304       .   A
O86         C92 1.304       .   A
C87        C473 1.540       .   S
C88        C725 1.540       .   S
C89        C615 1.540   1_556   S
C90        C543 1.540   1_565   S
C91        C579 1.540       .   S
C92        C689 1.540       .   S
Zn93        O97 1.942       .   S
Zn93        O98 1.922       .   S
Zn93       O102 1.922       .   S
Zn93       O109 1.922       .   S
Zn94        O97 1.942       .   S
Zn94        O99 1.922       .   S
Zn94       O101 1.922       .   S
Zn94       O105 1.922       .   S
Zn95        O97 1.942       .   S
Zn95       O100 1.922       .   S
Zn95       O103 1.922       .   S
Zn95       O106 1.922       .   S
Zn96        O97 1.942       .   S
Zn96       O104 1.922       .   S
Zn96       O107 1.922       .   S
Zn96       O108 1.922       .   S
O98        C110 1.304       .   A
O99        C111 1.304       .   A
O100       C112 1.304       .   A
O101       C110 1.304       .   A
O102       C112 1.304       .   A
O103       C111 1.304       .   A
O104       C113 1.304       .   A
O105       C114 1.304       .   A
O106       C113 1.304       .   A
O107       C114 1.304       .   A
O108       C115 1.304       .   A
O109       C115 1.304       .   A
C110       C257 1.540   1_565   S
C111       C795 1.540       .   S
C112       C903 1.540       .   S
C113       C293 1.540   1_665   S
C114       C867 1.540       .   S
C115       C797 1.540       .   S
Zn116      O120 1.942       .   S
Zn116      O121 1.922       .   S
Zn116      O125 1.922       .   S
Zn116      O132 1.922       .   S
Zn117      O120 1.942       .   S
Zn117      O122 1.922       .   S
Zn117      O124 1.922       .   S
Zn117      O128 1.922       .   S
Zn118      O120 1.942       .   S
Zn118      O123 1.922       .   S
Zn118      O126 1.922       .   S
Zn118      O129 1.922       .   S
Zn119      O120 1.942       .   S
Zn119      O127 1.922       .   S
Zn119      O130 1.922       .   S
Zn119      O131 1.922       .   S
O121       C133 1.304       .   A
O122       C134 1.304       .   A
O123       C135 1.304       .   A
O124       C133 1.304       .   A
O125       C135 1.304       .   A
O126       C134 1.304       .   A
O127       C136 1.304       .   A
O128       C137 1.304       .   A
O129       C136 1.304       .   A
O130       C137 1.304       .   A
O131       C138 1.304       .   A
O132       C138 1.304       .   A
C133       C401 1.540   1_465   S
C134       C761 1.540       .   S
C135       C905 1.540       .   S
C136       C471 1.540   1_565   S
C137       C941 1.540       .   S
C138       C831 1.540   1_556   S
Zn139      O143 1.942       .   S
Zn139      O144 1.922       .   S
Zn139      O148 1.922       .   S
Zn139      O155 1.922       .   S
Zn140      O143 1.942       .   S
Zn140      O145 1.922       .   S
Zn140      O147 1.922       .   S
Zn140      O151 1.922       .   S
Zn141      O143 1.942       .   S
Zn141      O146 1.922       .   S
Zn141      O149 1.922       .   S
Zn141      O152 1.922       .   S
Zn142      O143 1.942       .   S
Zn142      O150 1.922       .   S
Zn142      O153 1.922       .   S
Zn142      O154 1.922       .   S
O144       C156 1.304       .   A
O145       C157 1.304       .   A
O146       C158 1.304       .   A
O147       C156 1.304       .   A
O148       C158 1.304       .   A
O149       C157 1.304       .   A
O150       C159 1.304       .   A
O151       C160 1.304       .   A
O152       C159 1.304       .   A
O153       C160 1.304       .   A
O154       C161 1.304       .   A
O155       C161 1.304       .   A
C156       C617 1.540   1_455   S
C157       C833 1.540   1_545   S
C158      C1013 1.540       .   S
C159       C687 1.540       .   S
C160       C977 1.540       .   S
C161       C869 1.540       .   S
Zn162      O166 1.942       .   S
Zn162      O167 1.922       .   S
Zn162      O171 1.922       .   S
Zn162      O178 1.922       .   S
Zn163      O166 1.942       .   S
Zn163      O168 1.922       .   S
Zn163      O170 1.922       .   S
Zn163      O174 1.922       .   S
Zn164      O166 1.942       .   S
Zn164      O169 1.922       .   S
Zn164      O172 1.922       .   S
Zn164      O175 1.922       .   S
Zn165      O166 1.942       .   S
Zn165      O173 1.922       .   S
Zn165      O176 1.922       .   S
Zn165      O177 1.922       .   S
O167       C179 1.304       .   A
O168       C180 1.304       .   A
O169       C181 1.304       .   A
O170       C179 1.304       .   A
O171       C181 1.304       .   A
O172       C180 1.304       .   A
O173       C182 1.304       .   A
O174       C183 1.304       .   A
O175       C182 1.304       .   A
O176       C183 1.304       .   A
O177       C184 1.304       .   A
O178       C184 1.304       .   A
C179       C975 1.540       .   S
C180      C1047 1.540   1_556   S
C181       C723 1.540   1_455   S
C182       C939 1.540   1_545   S
C183       C759 1.540       .   S
C184      C1011 1.540       .   S
C1013     C1014 0.019       .   A
C1013     C1018 0.019       .   A
C1014     C1015 0.019       .   A
C1014     H1021 0.015       .   A
C1015     C1016 0.019       .   A
C1015     H1020 0.015       .   A
C1016     C1017 0.019       .   A
C1016     N1019 0.019       .   A
C1017     C1018 0.019       .   A
C1017     H1023 0.015       .   A
C1018     H1022 0.015       .   A
N1019     N1024 0.019       .   A
N1024     C1025 0.020       .   A
C1025     C1026 0.018       .   A
C1026     C1027 0.022       .   A
C1027     C1028 0.023       .   A
C1027     N1031 0.021       .   A
C1027     H1038 0.015       .   A
C1028     C1029 0.023       .   A
C1028     H1035 0.015       .   A
C1028     H1037 0.015       .   A
C1029     N1030 0.021       .   A
C1029     C1032 0.024       .   A
C1029     H1036 0.015       .   A
N1030     N1031 0.021       .   A
N1030     H1034 0.014       .   A
N1031     H1033 0.014       .   A
C1032     O1039 0.022       .   A
C1032     C1041 0.022       .   A
C1032     H1048 0.015       .   A
O1039     C1047 0.022       .   A
C1040     C1041 0.022       .   A
C1040     H1043 0.015       .   A
C1040     H1044 0.015       .   A
C1040     C1047 0.021       .   A
C1041     H1042 0.015       .   A
C1041     H1045 0.015       .   A
H1046     C1047 0.015       .   A
C977       C978 0.019       .   A
C977       C982 0.019       .   A
C978       C979 0.019       .   A
C978       H985 0.015       .   A
C979       C980 0.019       .   A
C979       H984 0.015       .   A
C980       C981 0.019       .   A
C980       N983 0.019       .   A
C981       C982 0.019       .   A
C981       H987 0.015       .   A
C982       H986 0.015       .   A
N983       N988 0.019       .   A
N988       C989 0.020       .   A
C989       C990 0.018       .   A
C990       C991 0.022       .   A
C991       C992 0.023       .   A
C991       N995 0.021       .   A
C991      H1002 0.015       .   A
C992       C993 0.023       .   A
C992       H999 0.015       .   A
C992      H1001 0.015       .   A
C993       N994 0.021       .   A
C993       C996 0.024       .   A
C993      H1000 0.015       .   A
N994       N995 0.021       .   A
N994       H998 0.014       .   A
N995       H997 0.014       .   A
C996      O1003 0.022       .   A
C996      C1005 0.022       .   A
C996      H1012 0.015       .   A
O1003     C1011 0.022       .   A
C1004     C1005 0.022       .   A
C1004     H1007 0.015       .   A
C1004     H1008 0.015       .   A
C1004     C1011 0.021       .   A
C1005     H1006 0.015       .   A
C1005     H1009 0.015       .   A
H1010     C1011 0.015       .   A
C941       C942 0.019       .   A
C941       C946 0.019       .   A
C942       C943 0.019       .   A
C942       H949 0.015       .   A
C943       C944 0.019       .   A
C943       H948 0.015       .   A
C944       C945 0.019       .   A
C944       N947 0.019       .   A
C945       C946 0.019       .   A
C945       H951 0.015       .   A
C946       H950 0.015       .   A
N947       N952 0.019       .   A
N952       C953 0.020       .   A
C953       C954 0.018       .   A
C954       C955 0.022       .   A
C955       C956 0.023       .   A
C955       N959 0.021       .   A
C955       H966 0.015       .   A
C956       C957 0.023       .   A
C956       H963 0.015       .   A
C956       H965 0.015       .   A
C957       N958 0.021       .   A
C957       C960 0.024       .   A
C957       H964 0.015       .   A
N958       N959 0.021       .   A
N958       H962 0.014       .   A
N959       H961 0.014       .   A
C960       O967 0.022       .   A
C960       C969 0.022       .   A
C960       H976 0.015       .   A
O967       C975 0.022       .   A
C968       C969 0.022       .   A
C968       H971 0.015       .   A
C968       H972 0.015       .   A
C968       C975 0.021       .   A
C969       H970 0.015       .   A
C969       H973 0.015       .   A
H974       C975 0.015       .   A
C905       C906 0.019       .   A
C905       C910 0.019       .   A
C906       C907 0.019       .   A
C906       H913 0.015       .   A
C907       C908 0.019       .   A
C907       H912 0.015       .   A
C908       C909 0.019       .   A
C908       N911 0.019       .   A
C909       C910 0.019       .   A
C909       H915 0.015       .   A
C910       H914 0.015       .   A
N911       N916 0.019       .   A
N916       C917 0.020       .   A
C917       C918 0.018       .   A
C918       C919 0.022       .   A
C919       C920 0.023       .   A
C919       N923 0.021       .   A
C919       H930 0.015       .   A
C920       C921 0.023       .   A
C920       H927 0.015       .   A
C920       H929 0.015       .   A
C921       N922 0.021       .   A
C921       C924 0.024       .   A
C921       H928 0.015       .   A
N922       N923 0.021       .   A
N922       H926 0.014       .   A
N923       H925 0.014       .   A
C924       O931 0.022       .   A
C924       C933 0.022       .   A
C924       H940 0.015       .   A
O931       C939 0.022       .   A
C932       C933 0.022       .   A
C932       H935 0.015       .   A
C932       H936 0.015       .   A
C932       C939 0.021       .   A
C933       H934 0.015       .   A
C933       H937 0.015       .   A
H938       C939 0.015       .   A
C869       C870 0.019       .   A
C869       C874 0.019       .   A
C870       C871 0.019       .   A
C870       H877 0.015       .   A
C871       C872 0.019       .   A
C871       H876 0.015       .   A
C872       C873 0.019       .   A
C872       N875 0.019       .   A
C873       C874 0.019       .   A
C873       H879 0.015       .   A
C874       H878 0.015       .   A
N875       N880 0.019       .   A
N880       C881 0.020       .   A
C881       C882 0.018       .   A
C882       C883 0.022       .   A
C883       C884 0.023       .   A
C883       N887 0.021       .   A
C883       H894 0.015       .   A
C884       C885 0.023       .   A
C884       H891 0.015       .   A
C884       H893 0.015       .   A
C885       N886 0.021       .   A
C885       C888 0.024       .   A
C885       H892 0.015       .   A
N886       N887 0.021       .   A
N886       H890 0.014       .   A
N887       H889 0.014       .   A
C888       O895 0.022       .   A
C888       C897 0.022       .   A
C888       H904 0.015       .   A
O895       C903 0.022       .   A
C896       C897 0.022       .   A
C896       H899 0.015       .   A
C896       H900 0.015       .   A
C896       C903 0.021       .   A
C897       H898 0.015       .   A
C897       H901 0.015       .   A
H902       C903 0.015       .   A
C833       C834 0.019       .   A
C833       C838 0.019       .   A
C834       C835 0.019       .   A
C834       H841 0.015       .   A
C835       C836 0.019       .   A
C835       H840 0.015       .   A
C836       C837 0.019       .   A
C836       N839 0.019       .   A
C837       C838 0.019       .   A
C837       H843 0.015       .   A
C838       H842 0.015       .   A
N839       N844 0.019       .   A
N844       C845 0.020       .   A
C845       C846 0.018       .   A
C846       C847 0.022       .   A
C847       C848 0.023       .   A
C847       N851 0.021       .   A
C847       H858 0.015       .   A
C848       C849 0.023       .   A
C848       H855 0.015       .   A
C848       H857 0.015       .   A
C849       N850 0.021       .   A
C849       C852 0.024       .   A
C849       H856 0.015       .   A
N850       N851 0.021       .   A
N850       H854 0.014       .   A
N851       H853 0.014       .   A
C852       O859 0.022       .   A
C852       C861 0.022       .   A
C852       H868 0.015       .   A
O859       C867 0.022       .   A
C860       C861 0.022       .   A
C860       H863 0.015       .   A
C860       H864 0.015       .   A
C860       C867 0.021       .   A
C861       H862 0.015       .   A
C861       H865 0.015       .   A
H866       C867 0.015       .   A
C797       C798 0.019       .   A
C797       C802 0.019       .   A
C798       C799 0.019       .   A
C798       H805 0.015       .   A
C799       C800 0.019       .   A
C799       H804 0.015       .   A
C800       C801 0.019       .   A
C800       N803 0.019       .   A
C801       C802 0.019       .   A
C801       H807 0.015       .   A
C802       H806 0.015       .   A
N803       N808 0.019       .   A
N808       C809 0.020       .   A
C809       C810 0.018       .   A
C810       C811 0.022       .   A
C811       C812 0.023       .   A
C811       N815 0.021       .   A
C811       H822 0.015       .   A
C812       C813 0.023       .   A
C812       H819 0.015       .   A
C812       H821 0.015       .   A
C813       N814 0.021       .   A
C813       C816 0.024       .   A
C813       H820 0.015       .   A
N814       N815 0.021       .   A
N814       H818 0.014       .   A
N815       H817 0.014       .   A
C816       O823 0.022       .   A
C816       C825 0.022       .   A
C816       H832 0.015       .   A
O823       C831 0.022       .   A
C824       C825 0.022       .   A
C824       H827 0.015       .   A
C824       H828 0.015       .   A
C824       C831 0.021       .   A
C825       H826 0.015       .   A
C825       H829 0.015       .   A
H830       C831 0.015       .   A
C761       C762 0.019       .   A
C761       C766 0.019       .   A
C762       C763 0.019       .   A
C762       H769 0.015       .   A
C763       C764 0.019       .   A
C763       H768 0.015       .   A
C764       C765 0.019       .   A
C764       N767 0.019       .   A
C765       C766 0.019       .   A
C765       H771 0.015       .   A
C766       H770 0.015       .   A
N767       N772 0.019       .   A
N772       C773 0.020       .   A
C773       C774 0.018       .   A
C774       C775 0.022       .   A
C775       C776 0.023       .   A
C775       N779 0.021       .   A
C775       H786 0.015       .   A
C776       C777 0.023       .   A
C776       H783 0.015       .   A
C776       H785 0.015       .   A
C777       N778 0.021       .   A
C777       C780 0.024       .   A
C777       H784 0.015       .   A
N778       N779 0.021       .   A
N778       H782 0.014       .   A
N779       H781 0.014       .   A
C780       O787 0.022       .   A
C780       C789 0.022       .   A
C780       H796 0.015       .   A
O787       C795 0.022       .   A
C788       C789 0.022       .   A
C788       H791 0.015       .   A
C788       H792 0.015       .   A
C788       C795 0.021       .   A
C789       H790 0.015       .   A
C789       H793 0.015       .   A
H794       C795 0.015       .   A
C725       C726 0.019       .   A
C725       C730 0.019       .   A
C726       C727 0.019       .   A
C726       H733 0.015       .   A
C727       C728 0.019       .   A
C727       H732 0.015       .   A
C728       C729 0.019       .   A
C728       N731 0.019       .   A
C729       C730 0.019       .   A
C729       H735 0.015       .   A
C730       H734 0.015       .   A
N731       N736 0.019       .   A
N736       C737 0.020       .   A
C737       C738 0.018       .   A
C738       C739 0.022       .   A
C739       C740 0.023       .   A
C739       N743 0.021       .   A
C739       H750 0.015       .   A
C740       C741 0.023       .   A
C740       H747 0.015       .   A
C740       H749 0.015       .   A
C741       N742 0.021       .   A
C741       C744 0.024       .   A
C741       H748 0.015       .   A
N742       N743 0.021       .   A
N742       H746 0.014       .   A
N743       H745 0.014       .   A
C744       O751 0.022       .   A
C744       C753 0.022       .   A
C744       H760 0.015       .   A
O751       C759 0.022       .   A
C752       C753 0.022       .   A
C752       H755 0.015       .   A
C752       H756 0.015       .   A
C752       C759 0.021       .   A
C753       H754 0.015       .   A
C753       H757 0.015       .   A
H758       C759 0.015       .   A
C689       C690 0.019       .   A
C689       C694 0.019       .   A
C690       C691 0.019       .   A
C690       H697 0.015       .   A
C691       C692 0.019       .   A
C691       H696 0.015       .   A
C692       C693 0.019       .   A
C692       N695 0.019       .   A
C693       C694 0.019       .   A
C693       H699 0.015       .   A
C694       H698 0.015       .   A
N695       N700 0.019       .   A
N700       C701 0.020       .   A
C701       C702 0.018       .   A
C702       C703 0.022       .   A
C703       C704 0.023       .   A
C703       N707 0.021       .   A
C703       H714 0.015       .   A
C704       C705 0.023       .   A
C704       H711 0.015       .   A
C704       H713 0.015       .   A
C705       N706 0.021       .   A
C705       C708 0.024       .   A
C705       H712 0.015       .   A
N706       N707 0.021       .   A
N706       H710 0.014       .   A
N707       H709 0.014       .   A
C708       O715 0.022       .   A
C708       C717 0.022       .   A
C708       H724 0.015       .   A
O715       C723 0.022       .   A
C716       C717 0.022       .   A
C716       H719 0.015       .   A
C716       H720 0.015       .   A
C716       C723 0.021       .   A
C717       H718 0.015       .   A
C717       H721 0.015       .   A
H722       C723 0.015       .   A
C653       C654 0.019       .   A
C653       C658 0.019       .   A
C654       C655 0.019       .   A
C654       H661 0.015       .   A
C655       C656 0.019       .   A
C655       H660 0.015       .   A
C656       C657 0.019       .   A
C656       N659 0.019       .   A
C657       C658 0.019       .   A
C657       H663 0.015       .   A
C658       H662 0.015       .   A
N659       N664 0.019       .   A
N664       C665 0.020       .   A
C665       C666 0.018       .   A
C666       C667 0.022       .   A
C667       C668 0.023       .   A
C667       N671 0.021       .   A
C667       H678 0.015       .   A
C668       C669 0.023       .   A
C668       H675 0.015       .   A
C668       H677 0.015       .   A
C669       N670 0.021       .   A
C669       C672 0.024       .   A
C669       H676 0.015       .   A
N670       N671 0.021       .   A
N670       H674 0.014       .   A
N671       H673 0.014       .   A
C672       O679 0.022       .   A
C672       C681 0.022       .   A
C672       H688 0.015       .   A
O679       C687 0.022       .   A
C680       C681 0.022       .   A
C680       H683 0.015       .   A
C680       H684 0.015       .   A
C680       C687 0.021       .   A
C681       H682 0.015       .   A
C681       H685 0.015       .   A
H686       C687 0.015       .   A
C617       C618 0.019       .   A
C617       C622 0.019       .   A
C618       C619 0.019       .   A
C618       H625 0.015       .   A
C619       C620 0.019       .   A
C619       H624 0.015       .   A
C620       C621 0.019       .   A
C620       N623 0.019       .   A
C621       C622 0.019       .   A
C621       H627 0.015       .   A
C622       H626 0.015       .   A
N623       N628 0.019       .   A
N628       C629 0.020       .   A
C629       C630 0.018       .   A
C630       C631 0.022       .   A
C631       C632 0.023       .   A
C631       N635 0.021       .   A
C631       H642 0.015       .   A
C632       C633 0.023       .   A
C632       H639 0.015       .   A
C632       H641 0.015       .   A
C633       N634 0.021       .   A
C633       C636 0.024       .   A
C633       H640 0.015       .   A
N634       N635 0.021       .   A
N634       H638 0.014       .   A
N635       H637 0.014       .   A
C636       O643 0.022       .   A
C636       C645 0.022       .   A
C636       H652 0.015       .   A
O643       C651 0.022       .   A
C644       C645 0.022       .   A
C644       H647 0.015       .   A
C644       H648 0.015       .   A
C644       C651 0.021       .   A
C645       H646 0.015       .   A
C645       H649 0.015       .   A
H650       C651 0.015       .   A
C581       C582 0.019       .   A
C581       C586 0.019       .   A
C582       C583 0.019       .   A
C582       H589 0.015       .   A
C583       C584 0.019       .   A
C583       H588 0.015       .   A
C584       C585 0.019       .   A
C584       N587 0.019       .   A
C585       C586 0.019       .   A
C585       H591 0.015       .   A
C586       H590 0.015       .   A
N587       N592 0.019       .   A
N592       C593 0.020       .   A
C593       C594 0.018       .   A
C594       C595 0.022       .   A
C595       C596 0.023       .   A
C595       N599 0.021       .   A
C595       H606 0.015       .   A
C596       C597 0.023       .   A
C596       H603 0.015       .   A
C596       H605 0.015       .   A
C597       N598 0.021       .   A
C597       C600 0.024       .   A
C597       H604 0.015       .   A
N598       N599 0.021       .   A
N598       H602 0.014       .   A
N599       H601 0.014       .   A
C600       O607 0.022       .   A
C600       C609 0.022       .   A
C600       H616 0.015       .   A
O607       C615 0.022       .   A
C608       C609 0.022       .   A
C608       H611 0.015       .   A
C608       H612 0.015       .   A
C608       C615 0.021       .   A
C609       H610 0.015       .   A
C609       H613 0.015       .   A
H614       C615 0.015       .   A
C545       C546 0.019       .   A
C545       C550 0.019       .   A
C546       C547 0.019       .   A
C546       H553 0.015       .   A
C547       C548 0.019       .   A
C547       H552 0.015       .   A
C548       C549 0.019       .   A
C548       N551 0.019       .   A
C549       C550 0.019       .   A
C549       H555 0.015       .   A
C550       H554 0.015       .   A
N551       N556 0.019       .   A
N556       C557 0.020       .   A
C557       C558 0.018       .   A
C558       C559 0.022       .   A
C559       C560 0.023       .   A
C559       N563 0.021       .   A
C559       H570 0.015       .   A
C560       C561 0.023       .   A
C560       H567 0.015       .   A
C560       H569 0.015       .   A
C561       N562 0.021       .   A
C561       C564 0.024       .   A
C561       H568 0.015       .   A
N562       N563 0.021       .   A
N562       H566 0.014       .   A
N563       H565 0.014       .   A
C564       O571 0.022       .   A
C564       C573 0.022       .   A
C564       H580 0.015       .   A
O571       C579 0.022       .   A
C572       C573 0.022       .   A
C572       H575 0.015       .   A
C572       H576 0.015       .   A
C572       C579 0.021       .   A
C573       H574 0.015       .   A
C573       H577 0.015       .   A
H578       C579 0.015       .   A
C509       C510 0.019       .   A
C509       C514 0.019       .   A
C510       C511 0.019       .   A
C510       H517 0.015       .   A
C511       C512 0.019       .   A
C511       H516 0.015       .   A
C512       C513 0.019       .   A
C512       N515 0.019       .   A
C513       C514 0.019       .   A
C513       H519 0.015       .   A
C514       H518 0.015       .   A
N515       N520 0.019       .   A
N520       C521 0.020       .   A
C521       C522 0.018       .   A
C522       C523 0.022       .   A
C523       C524 0.023       .   A
C523       N527 0.021       .   A
C523       H534 0.015       .   A
C524       C525 0.023       .   A
C524       H531 0.015       .   A
C524       H533 0.015       .   A
C525       N526 0.021       .   A
C525       C528 0.024       .   A
C525       H532 0.015       .   A
N526       N527 0.021       .   A
N526       H530 0.014       .   A
N527       H529 0.014       .   A
C528       O535 0.022       .   A
C528       C537 0.022       .   A
C528       H544 0.015       .   A
O535       C543 0.022       .   A
C536       C537 0.022       .   A
C536       H539 0.015       .   A
C536       H540 0.015       .   A
C536       C543 0.021       .   A
C537       H538 0.015       .   A
C537       H541 0.015       .   A
H542       C543 0.015       .   A
C473       C474 0.019       .   A
C473       C478 0.019       .   A
C474       C475 0.019       .   A
C474       H481 0.015       .   A
C475       C476 0.019       .   A
C475       H480 0.015       .   A
C476       C477 0.019       .   A
C476       N479 0.019       .   A
C477       C478 0.019       .   A
C477       H483 0.015       .   A
C478       H482 0.015       .   A
N479       N484 0.019       .   A
N484       C485 0.020       .   A
C485       C486 0.018       .   A
C486       C487 0.022       .   A
C487       C488 0.023       .   A
C487       N491 0.021       .   A
C487       H498 0.015       .   A
C488       C489 0.023       .   A
C488       H495 0.015       .   A
C488       H497 0.015       .   A
C489       N490 0.021       .   A
C489       C492 0.024       .   A
C489       H496 0.015       .   A
N490       N491 0.021       .   A
N490       H494 0.014       .   A
N491       H493 0.014       .   A
C492       O499 0.022       .   A
C492       C501 0.022       .   A
C492       H508 0.015       .   A
O499       C507 0.022       .   A
C500       C501 0.022       .   A
C500       H503 0.015       .   A
C500       H504 0.015       .   A
C500       C507 0.021       .   A
C501       H502 0.015       .   A
C501       H505 0.015       .   A
H506       C507 0.015       .   A
C437       C438 0.019       .   A
C437       C442 0.019       .   A
C438       C439 0.019       .   A
C438       H445 0.015       .   A
C439       C440 0.019       .   A
C439       H444 0.015       .   A
C440       C441 0.019       .   A
C440       N443 0.019       .   A
C441       C442 0.019       .   A
C441       H447 0.015       .   A
C442       H446 0.015       .   A
N443       N448 0.019       .   A
N448       C449 0.020       .   A
C449       C450 0.018       .   A
C450       C451 0.022       .   A
C451       C452 0.023       .   A
C451       N455 0.021       .   A
C451       H462 0.015       .   A
C452       C453 0.023       .   A
C452       H459 0.015       .   A
C452       H461 0.015       .   A
C453       N454 0.021       .   A
C453       C456 0.024       .   A
C453       H460 0.015       .   A
N454       N455 0.021       .   A
N454       H458 0.014       .   A
N455       H457 0.014       .   A
C456       O463 0.022       .   A
C456       C465 0.022       .   A
C456       H472 0.015       .   A
O463       C471 0.022       .   A
C464       C465 0.022       .   A
C464       H467 0.015       .   A
C464       H468 0.015       .   A
C464       C471 0.021       .   A
C465       H466 0.015       .   A
C465       H469 0.015       .   A
H470       C471 0.015       .   A
C401       C402 0.019       .   A
C401       C406 0.019       .   A
C402       C403 0.019       .   A
C402       H409 0.015       .   A
C403       C404 0.019       .   A
C403       H408 0.015       .   A
C404       C405 0.019       .   A
C404       N407 0.019       .   A
C405       C406 0.019       .   A
C405       H411 0.015       .   A
C406       H410 0.015       .   A
N407       N412 0.019       .   A
N412       C413 0.020       .   A
C413       C414 0.018       .   A
C414       C415 0.022       .   A
C415       C416 0.023       .   A
C415       N419 0.021       .   A
C415       H426 0.015       .   A
C416       C417 0.023       .   A
C416       H423 0.015       .   A
C416       H425 0.015       .   A
C417       N418 0.021       .   A
C417       C420 0.024       .   A
C417       H424 0.015       .   A
N418       N419 0.021       .   A
N418       H422 0.014       .   A
N419       H421 0.014       .   A
C420       O427 0.022       .   A
C420       C429 0.022       .   A
C420       H436 0.015       .   A
O427       C435 0.022       .   A
C428       C429 0.022       .   A
C428       H431 0.015       .   A
C428       H432 0.015       .   A
C428       C435 0.021       .   A
C429       H430 0.015       .   A
C429       H433 0.015       .   A
H434       C435 0.015       .   A
C365       C366 0.019       .   A
C365       C370 0.019       .   A
C366       C367 0.019       .   A
C366       H373 0.015       .   A
C367       C368 0.019       .   A
C367       H372 0.015       .   A
C368       C369 0.019       .   A
C368       N371 0.019       .   A
C369       C370 0.019       .   A
C369       H375 0.015       .   A
C370       H374 0.015       .   A
N371       N376 0.019       .   A
N376       C377 0.020       .   A
C377       C378 0.018       .   A
C378       C379 0.022       .   A
C379       C380 0.023       .   A
C379       N383 0.021       .   A
C379       H390 0.015       .   A
C380       C381 0.023       .   A
C380       H387 0.015       .   A
C380       H389 0.015       .   A
C381       N382 0.021       .   A
C381       C384 0.024       .   A
C381       H388 0.015       .   A
N382       N383 0.021       .   A
N382       H386 0.014       .   A
N383       H385 0.014       .   A
C384       O391 0.022       .   A
C384       C393 0.022       .   A
C384       H400 0.015       .   A
O391       C399 0.022       .   A
C392       C393 0.022       .   A
C392       H395 0.015       .   A
C392       H396 0.015       .   A
C392       C399 0.021       .   A
C393       H394 0.015       .   A
C393       H397 0.015       .   A
H398       C399 0.015       .   A
C329       C330 0.019       .   A
C329       C334 0.019       .   A
C330       C331 0.019       .   A
C330       H337 0.015       .   A
C331       C332 0.019       .   A
C331       H336 0.015       .   A
C332       C333 0.019       .   A
C332       N335 0.019       .   A
C333       C334 0.019       .   A
C333       H339 0.015       .   A
C334       H338 0.015       .   A
N335       N340 0.019       .   A
N340       C341 0.020       .   A
C341       C342 0.018       .   A
C342       C343 0.022       .   A
C343       C344 0.023       .   A
C343       N347 0.021       .   A
C343       H354 0.015       .   A
C344       C345 0.023       .   A
C344       H351 0.015       .   A
C344       H353 0.015       .   A
C345       N346 0.021       .   A
C345       C348 0.024       .   A
C345       H352 0.015       .   A
N346       N347 0.021       .   A
N346       H350 0.014       .   A
N347       H349 0.014       .   A
C348       O355 0.022       .   A
C348       C357 0.022       .   A
C348       H364 0.015       .   A
O355       C363 0.022       .   A
C356       C357 0.022       .   A
C356       H359 0.015       .   A
C356       H360 0.015       .   A
C356       C363 0.021       .   A
C357       H358 0.015       .   A
C357       H361 0.015       .   A
H362       C363 0.015       .   A
C293       C294 0.019       .   A
C293       C298 0.019       .   A
C294       C295 0.019       .   A
C294       H301 0.015       .   A
C295       C296 0.019       .   A
C295       H300 0.015       .   A
C296       C297 0.019       .   A
C296       N299 0.019       .   A
C297       C298 0.019       .   A
C297       H303 0.015       .   A
C298       H302 0.015       .   A
N299       N304 0.019       .   A
N304       C305 0.020       .   A
C305       C306 0.018       .   A
C306       C307 0.022       .   A
C307       C308 0.023       .   A
C307       N311 0.021       .   A
C307       H318 0.015       .   A
C308       C309 0.023       .   A
C308       H315 0.015       .   A
C308       H317 0.015       .   A
C309       N310 0.021       .   A
C309       C312 0.024       .   A
C309       H316 0.015       .   A
N310       N311 0.021       .   A
N310       H314 0.014       .   A
N311       H313 0.014       .   A
C312       O319 0.022       .   A
C312       C321 0.022       .   A
C312       H328 0.015       .   A
O319       C327 0.022       .   A
C320       C321 0.022       .   A
C320       H323 0.015       .   A
C320       H324 0.015       .   A
C320       C327 0.021       .   A
C321       H322 0.015       .   A
C321       H325 0.015       .   A
H326       C327 0.015       .   A
C257       C258 0.019       .   A
C257       C262 0.019       .   A
C258       C259 0.019       .   A
C258       H265 0.015       .   A
C259       C260 0.019       .   A
C259       H264 0.015       .   A
C260       C261 0.019       .   A
C260       N263 0.019       .   A
C261       C262 0.019       .   A
C261       H267 0.015       .   A
C262       H266 0.015       .   A
N263       N268 0.019       .   A
N268       C269 0.020       .   A
C269       C270 0.018       .   A
C270       C271 0.022       .   A
C271       C272 0.023       .   A
C271       N275 0.021       .   A
C271       H282 0.015       .   A
C272       C273 0.023       .   A
C272       H279 0.015       .   A
C272       H281 0.015       .   A
C273       N274 0.021       .   A
C273       C276 0.024       .   A
C273       H280 0.015       .   A
N274       N275 0.021       .   A
N274       H278 0.014       .   A
N275       H277 0.014       .   A
C276       O283 0.022       .   A
C276       C285 0.022       .   A
C276       H292 0.015       .   A
O283       C291 0.022       .   A
C284       C285 0.022       .   A
C284       H287 0.015       .   A
C284       H288 0.015       .   A
C284       C291 0.021       .   A
C285       H286 0.015       .   A
C285       H289 0.015       .   A
H290       C291 0.015       .   A
C221       C222 0.019       .   A
C221       C226 0.019       .   A
C222       C223 0.019       .   A
C222       H229 0.015       .   A
C223       C224 0.019       .   A
C223       H228 0.015       .   A
C224       C225 0.019       .   A
C224       N227 0.019       .   A
C225       C226 0.019       .   A
C225       H231 0.015       .   A
C226       H230 0.015       .   A
N227       N232 0.019       .   A
N232       C233 0.020       .   A
C233       C234 0.018       .   A
C234       C235 0.022       .   A
C235       C236 0.023       .   A
C235       N239 0.021       .   A
C235       H246 0.015       .   A
C236       C237 0.023       .   A
C236       H243 0.015       .   A
C236       H245 0.015       .   A
C237       N238 0.021       .   A
C237       C240 0.024       .   A
C237       H244 0.015       .   A
N238       N239 0.021       .   A
N238       H242 0.014       .   A
N239       H241 0.014       .   A
C240       O247 0.022       .   A
C240       C249 0.022       .   A
C240       H256 0.015       .   A
O247       C255 0.022       .   A
C248       C249 0.022       .   A
C248       H251 0.015       .   A
C248       H252 0.015       .   A
C248       C255 0.021       .   A
C249       H250 0.015       .   A
C249       H253 0.015       .   A
H254       C255 0.015       .   A
C185       C186 0.019       .   A
C185       C190 0.019       .   A
C186       C187 0.019       .   A
C186       H193 0.015       .   A
C187       C188 0.019       .   A
C187       H192 0.015       .   A
C188       C189 0.019       .   A
C188       N191 0.019       .   A
C189       C190 0.019       .   A
C189       H195 0.015       .   A
C190       H194 0.015       .   A
N191       N196 0.019       .   A
N196       C197 0.020       .   A
C197       C198 0.018       .   A
C198       C199 0.022       .   A
C199       C200 0.023       .   A
C199       N203 0.021       .   A
C199       H210 0.015       .   A
C200       C201 0.023       .   A
C200       H207 0.015       .   A
C200       H209 0.015       .   A
C201       N202 0.021       .   A
C201       C204 0.024       .   A
C201       H208 0.015       .   A
N202       N203 0.021       .   A
N202       H206 0.014       .   A
N203       H205 0.014       .   A
C204       O211 0.022       .   A
C204       C213 0.022       .   A
C204       H220 0.015       .   A
O211       C219 0.022       .   A
C212       C213 0.022       .   A
C212       H215 0.015       .   A
C212       H216 0.015       .   A
C212       C219 0.021       .   A
C213       H214 0.015       .   A
C213       H217 0.015       .   A
H218       C219 0.015       .   A
