data_pcu_v1-6c_Zn_1_Ch_1-68_fer_tobacco
_audit_creation_date              2021-02-03
_audit_creation_method            'tobacco_3.0'
_symmetry_space_group_name_H-M    'P1'
_symmetry_Int_Tables_number       1
_symmetry_cell_setting            triclinic
loop_
_symmetry_equiv_pos_as_xyz
  x,y,z
_cell_length_a                    37.26724537862411
_cell_length_b                    37.26724537862411
_cell_length_c                    37.26724537862411
_cell_angle_alpha                 90.0
_cell_angle_beta                  90.0
_cell_angle_gamma                 90.0
loop_
_atom_site_label
_atom_site_type_symbol
_atom_site_fract_x
_atom_site_fract_y
_atom_site_fract_z
_atom_site_charge
Zn1       Zn   -0.0300854004    0.0300854004   -0.0300854004          1.4972
Zn2       Zn    0.0300854004    0.0300854004    0.0300854004          1.4936
Zn3       Zn   -0.0300854004   -0.0300854004    0.0300854004          1.4911
Zn4       Zn    0.0300854004   -0.0300854004   -0.0300854004          1.4948
O5         O    0.0000000000    0.0000000000    0.0000000000         -2.2603
O6         O   -0.0221105690    0.0804084114   -0.0221105690         -1.1666
O7         O    0.0221105690    0.0221105690    0.0804084114         -1.1648
O8         O   -0.0804084114   -0.0221105690    0.0221105690         -1.1599
O9         O    0.0221105690    0.0804084114    0.0221105690         -1.1667
O10        O   -0.0804084114    0.0221105690   -0.0221105690         -1.1627
O11        O   -0.0221105690   -0.0221105690    0.0804084114         -1.1686
O12        O    0.0221105690   -0.0804084114   -0.0221105690         -1.1625
O13        O    0.0804084114    0.0221105690    0.0221105690           -1.17
O14        O   -0.0221105690   -0.0804084114    0.0221105690         -1.1639
O15        O    0.0804084114   -0.0221105690   -0.0221105690         -1.1686
O16        O    0.0221105690   -0.0221105690   -0.0804084114         -1.1677
O17        O   -0.0221105690    0.0221105690   -0.0804084114         -1.1656
C18        C   -0.0000000000    0.0961380420    0.0000000000          0.3523
C19        C    0.0000000000   -0.0000000000    0.0961380420          0.3572
C20        C   -0.0961380420    0.0000000000    0.0000000000          0.3468
C21        C    0.0000000000   -0.0961380420   -0.0000000000          0.3506
C22        C    0.0961380420   -0.0000000000   -0.0000000000          0.3619
C23        C   -0.0000000000    0.0000000000   -0.0961380420          0.3524
Zn24      Zn    1.0300854004    0.0300854004    0.4699145996          1.4972
Zn25      Zn    0.9699145996    0.0300854004    0.5300854004          1.4936
Zn26      Zn    0.9699145996   -0.0300854004    0.4699145996          1.4911
Zn27      Zn    1.0300854004   -0.0300854004    0.5300854004          1.4948
O28        O    1.0000000000    0.0000000000    0.5000000000         -2.2603
O29        O    1.0221105690    0.0804084114    0.4778894310         -1.1666
O30        O    0.9195915886    0.0221105690    0.5221105690         -1.1648
O31        O    0.9778894310   -0.0221105690    0.4195915886         -1.1599
O32        O    0.9778894310    0.0804084114    0.5221105690         -1.1667
O33        O    1.0221105690    0.0221105690    0.4195915886         -1.1627
O34        O    0.9195915886   -0.0221105690    0.4778894310         -1.1686
O35        O    1.0221105690   -0.0804084114    0.5221105690         -1.1625
O36        O    0.9778894310    0.0221105690    0.5804084114           -1.17
O37        O    0.9778894310   -0.0804084114    0.4778894310         -1.1639
O38        O    1.0221105690   -0.0221105690    0.5804084114         -1.1686
O39        O    1.0804084114   -0.0221105690    0.5221105690         -1.1677
O40        O    1.0804084114    0.0221105690    0.4778894310         -1.1656
C41        C    1.0000000000    0.0961380420    0.5000000000          0.3523
C42        C    0.9038619580    0.0000000000    0.5000000000          0.3572
C43        C    1.0000000000    0.0000000000    0.4038619580          0.3468
C44        C    1.0000000000   -0.0961380420    0.5000000000          0.3506
C45        C    1.0000000000    0.0000000000    0.5961380420          0.3619
C46        C    1.0961380420    0.0000000000    0.5000000000          0.3524
Zn47      Zn    1.0300854004    0.4699145996   -0.0300854004          1.4972
Zn48      Zn    0.9699145996    0.4699145996    0.0300854004          1.4936
Zn49      Zn    1.0300854004    0.5300854004    0.0300854004          1.4911
Zn50      Zn    0.9699145996    0.5300854004   -0.0300854004          1.4948
O51        O    1.0000000000    0.5000000000    0.0000000000         -2.2603
O52        O    1.0221105690    0.4195915886   -0.0221105690         -1.1666
O53        O    0.9778894310    0.4778894310    0.0804084114         -1.1648
O54        O    1.0804084114    0.5221105690    0.0221105690         -1.1599
O55        O    0.9778894310    0.4195915886    0.0221105690         -1.1667
O56        O    1.0804084114    0.4778894310   -0.0221105690         -1.1627
O57        O    1.0221105690    0.5221105690    0.0804084114         -1.1686
O58        O    0.9778894310    0.5804084114   -0.0221105690         -1.1625
O59        O    0.9195915886    0.4778894310    0.0221105690           -1.17
O60        O    1.0221105690    0.5804084114    0.0221105690         -1.1639
O61        O    0.9195915886    0.5221105690   -0.0221105690         -1.1686
O62        O    0.9778894310    0.5221105690   -0.0804084114         -1.1677
O63        O    1.0221105690    0.4778894310   -0.0804084114         -1.1656
C64        C    1.0000000000    0.4038619580    0.0000000000          0.3523
C65        C    1.0000000000    0.5000000000    0.0961380420          0.3572
C66        C    1.0961380420    0.5000000000    0.0000000000          0.3468
C67        C    1.0000000000    0.5961380420    0.0000000000          0.3506
C68        C    0.9038619580    0.5000000000    0.0000000000          0.3619
C69        C    1.0000000000    0.5000000000   -0.0961380420          0.3524
Zn70      Zn    0.9699145996    0.4699145996    0.4699145996          1.4972
Zn71      Zn    1.0300854004    0.4699145996    0.5300854004          1.4936
Zn72      Zn    1.0300854004    0.5300854004    0.4699145996          1.4911
Zn73      Zn    0.9699145996    0.5300854004    0.5300854004          1.4948
O74        O    1.0000000000    0.5000000000    0.5000000000         -2.2603
O75        O    0.9778894310    0.4195915886    0.4778894310         -1.1666
O76        O    1.0804084114    0.4778894310    0.5221105690         -1.1648
O77        O    1.0221105690    0.5221105690    0.4195915886         -1.1599
O78        O    1.0221105690    0.4195915886    0.5221105690         -1.1667
O79        O    0.9778894310    0.4778894310    0.4195915886         -1.1627
O80        O    1.0804084114    0.5221105690    0.4778894310         -1.1686
O81        O    0.9778894310    0.5804084114    0.5221105690         -1.1625
O82        O    1.0221105690    0.4778894310    0.5804084114           -1.17
O83        O    1.0221105690    0.5804084114    0.4778894310         -1.1639
O84        O    0.9778894310    0.5221105690    0.5804084114         -1.1686
O85        O    0.9195915886    0.5221105690    0.5221105690         -1.1677
O86        O    0.9195915886    0.4778894310    0.4778894310         -1.1656
C87        C    1.0000000000    0.4038619580    0.5000000000          0.3523
C88        C    1.0961380420    0.5000000000    0.5000000000          0.3572
C89        C    1.0000000000    0.5000000000    0.4038619580          0.3468
C90        C    1.0000000000    0.5961380420    0.5000000000          0.3506
C91        C    1.0000000000    0.5000000000    0.5961380420          0.3619
C92        C    0.9038619580    0.5000000000    0.5000000000          0.3524
Zn93      Zn    0.4699145996    0.9699145996   -0.0300854004          1.4972
Zn94      Zn    0.4699145996    1.0300854004    0.0300854004          1.4936
Zn95      Zn    0.5300854004    0.9699145996    0.0300854004          1.4911
Zn96      Zn    0.5300854004    1.0300854004   -0.0300854004          1.4948
O97        O    0.5000000000    1.0000000000    0.0000000000         -2.2603
O98        O    0.4195915886    0.9778894310   -0.0221105690         -1.1666
O99        O    0.4778894310    1.0221105690    0.0804084114         -1.1648
O100       O    0.5221105690    0.9195915886    0.0221105690         -1.1599
O101       O    0.4195915886    1.0221105690    0.0221105690         -1.1667
O102       O    0.4778894310    0.9195915886   -0.0221105690         -1.1627
O103       O    0.5221105690    0.9778894310    0.0804084114         -1.1686
O104       O    0.5804084114    1.0221105690   -0.0221105690         -1.1625
O105       O    0.4778894310    1.0804084114    0.0221105690           -1.17
O106       O    0.5804084114    0.9778894310    0.0221105690         -1.1639
O107       O    0.5221105690    1.0804084114   -0.0221105690         -1.1686
O108       O    0.5221105690    1.0221105690   -0.0804084114         -1.1677
O109       O    0.4778894310    0.9778894310   -0.0804084114         -1.1656
C110       C    0.4038619580    1.0000000000    0.0000000000          0.3523
C111       C    0.5000000000    1.0000000000    0.0961380420          0.3572
C112       C    0.5000000000    0.9038619580    0.0000000000          0.3468
C113       C    0.5961380420    1.0000000000    0.0000000000          0.3506
C114       C    0.5000000000    1.0961380420    0.0000000000          0.3619
C115       C    0.5000000000    1.0000000000   -0.0961380420          0.3524
Zn116     Zn    0.5300854004    0.9699145996    0.5300854004          1.4972
Zn117     Zn    0.5300854004    1.0300854004    0.4699145996          1.4936
Zn118     Zn    0.4699145996    0.9699145996    0.4699145996          1.4911
Zn119     Zn    0.4699145996    1.0300854004    0.5300854004          1.4948
O120       O    0.5000000000    1.0000000000    0.5000000000         -2.2603
O121       O    0.5804084114    0.9778894310    0.5221105690         -1.1666
O122       O    0.5221105690    1.0221105690    0.4195915886         -1.1648
O123       O    0.4778894310    0.9195915886    0.4778894310         -1.1599
O124       O    0.5804084114    1.0221105690    0.4778894310         -1.1667
O125       O    0.5221105690    0.9195915886    0.5221105690         -1.1627
O126       O    0.4778894310    0.9778894310    0.4195915886         -1.1686
O127       O    0.4195915886    1.0221105690    0.5221105690         -1.1625
O128       O    0.5221105690    1.0804084114    0.4778894310           -1.17
O129       O    0.4195915886    0.9778894310    0.4778894310         -1.1639
O130       O    0.4778894310    1.0804084114    0.5221105690         -1.1686
O131       O    0.4778894310    1.0221105690    0.5804084114         -1.1677
O132       O    0.5221105690    0.9778894310    0.5804084114         -1.1656
C133       C    0.5961380420    1.0000000000    0.5000000000          0.3523
C134       C    0.5000000000    1.0000000000    0.4038619580          0.3572
C135       C    0.5000000000    0.9038619580    0.5000000000          0.3468
C136       C    0.4038619580    1.0000000000    0.5000000000          0.3506
C137       C    0.5000000000    1.0961380420    0.5000000000          0.3619
C138       C    0.5000000000    1.0000000000    0.5961380420          0.3524
Zn139     Zn    0.4699145996    0.5300854004   -0.0300854004          1.4972
Zn140     Zn    0.4699145996    0.4699145996    0.0300854004          1.4936
Zn141     Zn    0.5300854004    0.4699145996   -0.0300854004          1.4911
Zn142     Zn    0.5300854004    0.5300854004    0.0300854004          1.4948
O143       O    0.5000000000    0.5000000000    0.0000000000         -2.2603
O144       O    0.4195915886    0.5221105690   -0.0221105690         -1.1666
O145       O    0.4778894310    0.4195915886    0.0221105690         -1.1648
O146       O    0.5221105690    0.4778894310   -0.0804084114         -1.1599
O147       O    0.4195915886    0.4778894310    0.0221105690         -1.1667
O148       O    0.4778894310    0.5221105690   -0.0804084114         -1.1627
O149       O    0.5221105690    0.4195915886   -0.0221105690         -1.1686
O150       O    0.5804084114    0.5221105690    0.0221105690         -1.1625
O151       O    0.4778894310    0.4778894310    0.0804084114           -1.17
O152       O    0.5804084114    0.4778894310   -0.0221105690         -1.1639
O153       O    0.5221105690    0.5221105690    0.0804084114         -1.1686
O154       O    0.5221105690    0.5804084114    0.0221105690         -1.1677
O155       O    0.4778894310    0.5804084114   -0.0221105690         -1.1656
C156       C    0.4038619580    0.5000000000    0.0000000000          0.3523
C157       C    0.5000000000    0.4038619580    0.0000000000          0.3572
C158       C    0.5000000000    0.5000000000   -0.0961380420          0.3468
C159       C    0.5961380420    0.5000000000    0.0000000000          0.3506
C160       C    0.5000000000    0.5000000000    0.0961380420          0.3619
C161       C    0.5000000000    0.5961380420    0.0000000000          0.3524
Zn162     Zn    0.4699145996    0.4699145996    0.4699145996          1.4972
Zn163     Zn    0.5300854004    0.4699145996    0.5300854004          1.4936
Zn164     Zn    0.5300854004    0.5300854004    0.4699145996          1.4911
Zn165     Zn    0.4699145996    0.5300854004    0.5300854004          1.4948
O166       O    0.5000000000    0.5000000000    0.5000000000         -2.2603
O167       O    0.4778894310    0.4195915886    0.4778894310         -1.1666
O168       O    0.5804084114    0.4778894310    0.5221105690         -1.1648
O169       O    0.5221105690    0.5221105690    0.4195915886         -1.1599
O170       O    0.5221105690    0.4195915886    0.5221105690         -1.1667
O171       O    0.4778894310    0.4778894310    0.4195915886         -1.1627
O172       O    0.5804084114    0.5221105690    0.4778894310         -1.1686
O173       O    0.4778894310    0.5804084114    0.5221105690         -1.1625
O174       O    0.5221105690    0.4778894310    0.5804084114           -1.17
O175       O    0.5221105690    0.5804084114    0.4778894310         -1.1639
O176       O    0.4778894310    0.5221105690    0.5804084114         -1.1686
O177       O    0.4195915886    0.5221105690    0.5221105690         -1.1677
O178       O    0.4195915886    0.4778894310    0.4778894310         -1.1656
C179       C    0.5000000000    0.4038619580    0.5000000000          0.3523
C180       C    0.5961380420    0.5000000000    0.5000000000          0.3572
C181       C    0.5000000000    0.5000000000    0.4038619580          0.3468
C182       C    0.5000000000    0.5961380420    0.5000000000          0.3506
C183       C    0.5000000000    0.5000000000    0.5961380420          0.3619
C184       C    0.4038619580    0.5000000000    0.5000000000          0.3524
C691       C    0.5000000000    0.5000000000   -0.1374611927          0.5724
C692       C    0.5284894133    0.4973989535   -0.1596405221         -0.4204
C693       C    0.5266244622    0.5108199969   -0.1933634596          0.5751
C694       C    0.4960903106    0.5263334804   -0.2051912893           0.564
C695       C    0.4681315242    0.5280430110   -0.1831337836          0.5576
C696       C    0.4699877812    0.5153397995   -0.1499486372          0.5616
C697       C    0.4912599622    0.5418583598   -0.2427633672          0.5585
C698       C    0.5499782929    0.5090422614   -0.2122263740         -0.4192
O699       O    0.5579020268    0.4794704849   -0.1493543286         -0.4066
H700       H    0.4462032881    0.5175426881   -0.1331699193           0.556
H701       H    0.4430437608    0.5398160744   -0.1922433044          0.5493
C702       C    0.4734815326    0.5147660386   -0.2685340988         -0.4101
N703       N    0.4811605370    0.5261073354   -0.3055964852          -0.412
N704       N    0.4789314722    0.5553138876   -0.3014058685            0.56
N705       N    0.4910286441    0.5581998213   -0.2674705734          0.5491
N706       N    0.4890932162    0.5013342147   -0.3300593050         -0.3834
H707       H    0.4845356450    0.4878942769   -0.2639375258         -0.3864
H708       H    0.4443977259    0.5134088268   -0.2638027929         -0.4095
H709       H    0.5170317783    0.5516577873   -0.2529557639          0.5514
H710       H    0.5676187146    0.4702169222   -0.1715924082          -0.393
N711       N    0.5771379289    0.5161417973   -0.2246378037          0.5768
N712       N    0.5000000000    0.5000000000   -0.3625388073         -0.3747
C669       C    0.5000000000    0.5000000000    0.3625388073          0.5724
C670       C    0.4715105867    0.5026010465    0.3403594779         -0.4204
C671       C    0.4733755378    0.4891800031    0.3066365404          0.5751
C672       C    0.5039096894    0.4736665196    0.2948087107           0.564
C673       C    0.5318684758    0.4719569890    0.3168662164          0.5576
C674       C    0.5300122188    0.4846602005    0.3500513628          0.5616
C675       C    0.5087400378    0.4581416402    0.2572366328          0.5585
C676       C    0.4500217071    0.4909577386    0.2877736260         -0.4192
O677       O    0.4420979732    0.5205295151    0.3506456714         -0.4066
H678       H    0.5537967119    0.4824573119    0.3668300807           0.556
H679       H    0.5569562392    0.4601839256    0.3077566956          0.5493
C680       C    0.5265184674    0.4852339614    0.2314659012         -0.4101
N681       N    0.5188394630    0.4738926646    0.1944035148          -0.412
N682       N    0.5210685278    0.4446861124    0.1985941315            0.56
N683       N    0.5089713559    0.4418001787    0.2325294266          0.5491
N684       N    0.5109067838    0.4986657853    0.1699406950         -0.3834
H685       H    0.5154643550    0.5121057231    0.2360624742         -0.3864
H686       H    0.5556022741    0.4865911732    0.2361972071         -0.4095
H687       H    0.4829682217    0.4483422127    0.2470442361          0.5514
H688       H    0.4323812854    0.5297830778    0.3284075918          -0.393
N689       N    0.4228620711    0.4838582027    0.2753621963          0.5768
N690       N    0.5000000000    0.5000000000    0.1374611927         -0.3747
C647       C    0.5000000000    0.8625388073    0.5000000000          0.5724
C648       C    0.5283088075    0.8403594779    0.4958740421         -0.4204
C649       C    0.5233603372    0.8066365404    0.4832599592          0.5751
C650       C    0.4900470551    0.7948087107    0.4753083668           0.564
C651       C    0.4624624493    0.8168662164    0.4801772226          0.5576
C652       C    0.4672347827    0.8500513628    0.4920953645          0.5616
C653       C    0.4817237798    0.7572366328    0.4613413616          0.5585
C654       C    0.5464833227    0.7877736260    0.4795331253         -0.4192
O655       O    0.5610957139    0.8506456714    0.5064357934         -0.4066
H656       H    0.4435937352    0.8668300807    0.4955094092           0.556
H657       H    0.4353186239    0.8077566956    0.4745903058          0.5493
C658       C    0.4707659030    0.7314659012    0.4918371214         -0.4101
N659       N    0.4755831629    0.6944035148    0.4790158061          -0.412
N660       N    0.4665932046    0.6985941315    0.4511380000            0.56
N661       N    0.4776815444    0.7325294266    0.4455060466          0.5491
N662       N    0.4890833002    0.6699406950    0.5012504908         -0.3834
H663       H    0.4877913507    0.7360624742    0.5153832275         -0.3864
H664       H    0.4428037843    0.7361972071    0.4999506749         -0.4095
H665       H    0.5044934626    0.7470442361    0.4457928302          0.5514
H666       H    0.5727051797    0.8284075918    0.5131635529          -0.393
N667       N    0.5712331160    0.7753621963    0.4662855983          0.5768
N668       N    0.5000000000    0.6374611927    0.5000000000         -0.3747
C625       C    0.5000000000    1.1374611927    0.5000000000          0.5724
C626       C    0.4715105867    1.1596405221    0.5026010465         -0.4204
C627       C    0.4733755378    1.1933634596    0.4891800031          0.5751
C628       C    0.5039096894    1.2051912893    0.4736665196           0.564
C629       C    0.5318684758    1.1831337836    0.4719569890          0.5576
C630       C    0.5300122188    1.1499486372    0.4846602005          0.5616
C631       C    0.5087400378    1.2427633672    0.4581416402          0.5585
C632       C    0.4500217071    1.2122263740    0.4909577386         -0.4192
O633       O    0.4420979732    1.1493543286    0.5205295151         -0.4066
H634       H    0.5537967119    1.1331699193    0.4824573119           0.556
H635       H    0.5569562392    1.1922433044    0.4601839256          0.5493
C636       C    0.5265184674    1.2685340988    0.4852339614         -0.4101
N637       N    0.5188394630    1.3055964852    0.4738926646          -0.412
N638       N    0.5210685278    1.3014058685    0.4446861124            0.56
N639       N    0.5089713559    1.2674705734    0.4418001787          0.5491
N640       N    0.5109067838    1.3300593050    0.4986657853         -0.3834
H641       H    0.5154643550    1.2639375258    0.5121057231         -0.3864
H642       H    0.5556022741    1.2638027929    0.4865911732         -0.4095
H643       H    0.4829682217    1.2529557639    0.4483422127          0.5514
H644       H    0.4323812854    1.1715924082    0.5297830778          -0.393
N645       N    0.4228620711    1.2246378037    0.4838582027          0.5768
N646       N    0.5000000000    1.3625388073    0.5000000000         -0.3747
C603       C    0.5000000000    0.8625388073    0.0000000000          0.5724
C604       C    0.5221416954    0.8403594779   -0.0181151163         -0.4204
C605       C    0.5114039052    0.8066365404   -0.0263796373          0.5751
C606       C    0.4787527133    0.7948087107   -0.0160402827           0.564
C607       C    0.4576143812    0.8168662164    0.0023387039          0.5576
C608       C    0.4678427938    0.8500513628    0.0100973667          0.5616
C609       C    0.4644253015    0.7572366328   -0.0237265963          0.5585
C610       C    0.5293058253    0.7877736260   -0.0414820546         -0.4192
O611       O    0.5556858413    0.8506456714   -0.0259459587         -0.4066
H612       H    0.4493357096    0.8668300807    0.0251984484           0.556
H613       H    0.4314694287    0.8077566956    0.0115279561          0.5493
C614       C    0.4707367002    0.7314659012    0.0080575613         -0.4101
N615       N    0.4682634262    0.6944035148   -0.0054137057          -0.412
N616       N    0.4462008178    0.6985941315   -0.0246811066            0.56
N617       N    0.4528054872    0.7325294266   -0.0352190628          0.5491
N618       N    0.4912861183    0.6699406950    0.0066937529         -0.3834
H619       H    0.4974566561    0.7360624742    0.0194737313         -0.3864
H620       H    0.4509456996    0.7361972071    0.0294123297         -0.4095
H621       H    0.4759364919    0.7470442361   -0.0487806933          0.5514
H622       H    0.5691021638    0.8284075918   -0.0261574702          -0.393
N623       N    0.5436993362    0.7753621963   -0.0655834255          0.5768
N624       N    0.5000000000    0.6374611927    0.0000000000         -0.3747
C581       C    0.5000000000    1.1374611927    0.0000000000          0.5724
C582       C    0.5068896369    1.1596405221   -0.0277658966         -0.4204
C583       C    0.5189559919    1.1933634596   -0.0216010345          0.5751
C584       C    0.5235932704    1.2051912893    0.0123326985           0.564
C585       C    0.5160355485    1.1831337836    0.0393048521          0.5576
C586       C    0.5046444418    1.1499486372    0.0333837069          0.5616
C587       C    0.5366741379    1.2427633672    0.0219890462          0.5585
C588       C    0.5249385044    1.2122263740   -0.0442454884         -0.4192
O589       O    0.4996030896    1.1493543286   -0.0614324683         -0.4066
H590       H    0.4989222602    1.1331699193    0.0565744695           0.556
H591       H    0.5189262694    1.1922433044    0.0668665035          0.5493
C592       C    0.5052486571    1.2685340988    0.0298950934         -0.4101
N593       N    0.5184815286    1.3055964852    0.0263619314          -0.412
N594       N    0.5453402234    1.3014058685    0.0380496146            0.56
N595       N    0.5520352260    1.2674705734    0.0275688170          0.5491
N596       N    0.4976821035    1.3300593050    0.0107408295         -0.3834
H597       H    0.4834908188    1.2639375258    0.0106368107         -0.3864
H598       H    0.4944248407    1.2638027929    0.0569238713         -0.4095
H599       H    0.5543863145    1.2529557639    0.0008586395          0.5514
H600       H    0.4940495228    1.1715924082   -0.0736472274          -0.393
N601       N    0.5405555373    1.2246378037   -0.0675726726          0.5768
N602       N    0.5000000000    1.3625388073    0.0000000000         -0.3747
C559       C    0.5000000000    1.0000000000   -0.1374611927          0.5724
C560       C    0.4774692813    0.9823710798   -0.1596405221         -0.4204
C561       C    0.4880246541    0.9738748128   -0.1933634596          0.5751
C562       C    0.5208931435    0.9835010783   -0.2051912893           0.564
C563       C    0.5424264795    1.0014156441   -0.1831337836          0.5576
C564       C    0.5323693540    1.0093950864   -0.1499486372          0.5616
C565       C    0.5350498720    0.9755047552   -0.2427633672          0.5585
C566       C    0.4697982765    0.9591656009   -0.2122263740         -0.4192
O567       O    0.4437626461    0.9752721670   -0.1493543286         -0.4066
H568       H    0.5512007232    1.0240897917   -0.1331699193           0.556
H569       H    0.5687652392    1.0100336854   -0.1922433044          0.5493
C570       C    0.5294317376    1.0074187488   -0.2685340988         -0.4101
N571       N    0.5316112290    0.9938968430   -0.3055964852          -0.412
N572       N    0.5532492642    0.9741538224   -0.3014058685            0.56
N573       N    0.5464168049    0.9637621104   -0.2674705734          0.5491
N574       N    0.5088575044    1.0065025133   -0.3300593050         -0.3834
H575       H    0.5029665793    1.0194137635   -0.2639375258         -0.3864
H576       H    0.5496828280    1.0283377157   -0.2638027929         -0.4095
H577       H    0.5229961161    0.9507071292   -0.2529557639          0.5514
H578       H    0.4303448982    0.9753527064   -0.1715924082          -0.393
N579       N    0.4548836185    0.9353832080   -0.2246378037          0.5768
N580       N    0.5000000000    1.0000000000   -0.3625388073         -0.3747
C537       C    0.5000000000    1.0000000000    0.3625388073          0.5724
C538       C    0.4715105867    1.0026010465    0.3403594779         -0.4204
C539       C    0.4733755378    0.9891800031    0.3066365404          0.5751
C540       C    0.5039096894    0.9736665196    0.2948087107           0.564
C541       C    0.5318684758    0.9719569890    0.3168662164          0.5576
C542       C    0.5300122188    0.9846602005    0.3500513628          0.5616
C543       C    0.5087400378    0.9581416402    0.2572366328          0.5585
C544       C    0.4500217071    0.9909577386    0.2877736260         -0.4192
O545       O    0.4420979732    1.0205295151    0.3506456714         -0.4066
H546       H    0.5537967119    0.9824573119    0.3668300807           0.556
H547       H    0.5569562392    0.9601839256    0.3077566956          0.5493
C548       C    0.5265184674    0.9852339614    0.2314659012         -0.4101
N549       N    0.5188394630    0.9738926646    0.1944035148          -0.412
N550       N    0.5210685278    0.9446861124    0.1985941315            0.56
N551       N    0.5089713559    0.9418001787    0.2325294266          0.5491
N552       N    0.5109067838    0.9986657853    0.1699406950         -0.3834
H553       H    0.5154643550    1.0121057231    0.2360624742         -0.3864
H554       H    0.5556022741    0.9865911732    0.2361972071         -0.4095
H555       H    0.4829682217    0.9483422127    0.2470442361          0.5514
H556       H    0.4323812854    1.0297830778    0.3284075918          -0.393
N557       N    0.4228620711    0.9838582027    0.2753621963          0.5768
N558       N    0.5000000000    1.0000000000    0.1374611927         -0.3747
C515       C    0.6374611927    0.5000000000    0.5000000000          0.5724
C516       C    0.6596405221    0.5168029071    0.4768467189         -0.4204
C517       C    0.6933634596    0.5043154921    0.4715867840          0.5751
C518       C    0.7051912893    0.4753703258    0.4898947038           0.564
C519       C    0.6831337836    0.4596048991    0.5130478365          0.5576
C520       C    0.6499486372    0.4714709768    0.5179481909          0.5616
C521       C    0.7427633672    0.4595586029    0.4861074140          0.5585
C522       C    0.7122263740    0.5177848610    0.4524259423         -0.4192
O523       O    0.6493543286    0.5472499869    0.4607374933         -0.4066
H524       H    0.6331699193    0.4574160265    0.5372617407           0.556
H525       H    0.6922433044    0.4366591072    0.5285878343          0.5493
C526       C    0.7685340988    0.4737505314    0.5152391079         -0.4101
N527       N    0.8055964852    0.4679305651    0.5028407164          -0.412
N528       N    0.8014058685    0.4416911860    0.4898220216            0.56
N529       N    0.7674705734    0.4453967662    0.4779502545          0.5491
N530       N    0.8300593050    0.4932763872    0.5086908626         -0.3834
H531       H    0.7639375258    0.5024959835    0.5194798582         -0.3864
H532       H    0.7638027929    0.4600453460    0.5409271933         -0.4095
H533       H    0.7529557639    0.4643151666    0.4589487987          0.5514
H534       H    0.6715924082    0.5601708070    0.4571188121          -0.393
N535       N    0.7246378037    0.5255713026    0.4254552069          0.5768
N536       N    0.8625388073    0.5000000000    0.5000000000         -0.3747
C493       C    1.1374611927    0.5000000000    0.5000000000          0.5724
C494       C    1.1596405221    0.5168029071    0.4768467189         -0.4204
C495       C    1.1933634596    0.5043154921    0.4715867840          0.5751
C496       C    1.2051912893    0.4753703258    0.4898947038           0.564
C497       C    1.1831337836    0.4596048991    0.5130478365          0.5576
C498       C    1.1499486372    0.4714709768    0.5179481909          0.5616
C499       C    1.2427633672    0.4595586029    0.4861074140          0.5585
C500       C    1.2122263740    0.5177848610    0.4524259423         -0.4192
O501       O    1.1493543286    0.5472499869    0.4607374933         -0.4066
H502       H    1.1331699193    0.4574160265    0.5372617407           0.556
H503       H    1.1922433044    0.4366591072    0.5285878343          0.5493
C504       C    1.2685340988    0.4737505314    0.5152391079         -0.4101
N505       N    1.3055964852    0.4679305651    0.5028407164          -0.412
N506       N    1.3014058685    0.4416911860    0.4898220216            0.56
N507       N    1.2674705734    0.4453967662    0.4779502545          0.5491
N508       N    1.3300593050    0.4932763872    0.5086908626         -0.3834
H509       H    1.2639375258    0.5024959835    0.5194798582         -0.3864
H510       H    1.2638027929    0.4600453460    0.5409271933         -0.4095
H511       H    1.2529557639    0.4643151666    0.4589487987          0.5514
H512       H    1.1715924082    0.5601708070    0.4571188121          -0.393
N513       N    1.2246378037    0.5255713026    0.4254552069          0.5768
N514       N    1.3625388073    0.5000000000    0.5000000000         -0.3747
C471       C    0.8625388073    0.5000000000    0.0000000000          0.5724
C472       C    0.8403594779    0.5087872937    0.0272249074         -0.4204
C473       C    0.8066365404    0.4952840445    0.0283494988          0.5751
C474       C    0.7948087107    0.4734502803    0.0019622040           0.564
C475       C    0.8168662164    0.4656491889   -0.0249405691          0.5576
C476       C    0.8500513628    0.4784501836   -0.0259161752          0.5616
C477       C    0.7572366328    0.4572439321    0.0006551368          0.5585
C478       C    0.7877736260    0.5021415099    0.0507445188         -0.4192
O479       O    0.8506456714    0.5327311934    0.0519882167         -0.4066
H480       H    0.8668300807    0.4710834480   -0.0486381038           0.556
H481       H    0.8077566956    0.4486594893   -0.0468346553          0.5493
C482       C    0.7314659012    0.4797763786   -0.0226333857         -0.4101
N483       N    0.6944035148    0.4703958359   -0.0126535290          -0.412
N484       N    0.6985941315    0.4414116961   -0.0084213823            0.56
N485       N    0.7325294266    0.4412497614    0.0040142101          0.5491
N486       N    0.6699406950    0.4963057083   -0.0103484429         -0.3834
H487       H    0.7360624742    0.5084185103   -0.0177432661         -0.3864
H488       H    0.7361972071    0.4747205410   -0.0513065150         -0.4095
H489       H    0.7470442361    0.4533366462    0.0279488798          0.5514
H490       H    0.8284075918    0.5438908728    0.0594383173          -0.393
N491       N    0.7753621963    0.5011727937    0.0788000142          0.5768
N492       N    0.6374611927    0.5000000000    0.0000000000         -0.3747
C449       C    1.1374611927    0.5000000000    0.0000000000          0.5724
C450       C    1.1596405221    0.5238543830    0.0157917866         -0.4204
C451       C    1.1933634596    0.5285725005    0.0030897468          0.5751
C452       C    1.2051912893    0.5090368862   -0.0250414167           0.564
C453       C    1.1831337836    0.4852272626   -0.0397966889          0.5576
C454       C    1.1499486372    0.4808416759   -0.0277308734          0.5616
C455       C    1.2427633672    0.5121407770   -0.0410013668          0.5585
C456       C    1.2122263740    0.5482947962    0.0157227512         -0.4192
O457       O    1.1493543286    0.5412579182    0.0455180171         -0.4066
H458       H    1.1331699193    0.4609416336   -0.0409423513           0.556
H459       H    1.1922433044    0.4687149804   -0.0620530460          0.5493
C460       C    1.2685340988    0.4836462729   -0.0255699163         -0.4101
N461       N    1.3055964852    0.4957829415   -0.0319176244          -0.412
N462       N    1.3014058685    0.5076613151   -0.0586925317            0.56
N463       N    1.2674705734    0.5196814401   -0.0555008589          0.5491
N464       N    1.3300593050    0.4910280637   -0.0063436914         -0.3834
H465       H    1.2639375258    0.4806454849    0.0033312991         -0.3864
H466       H    1.2638027929    0.4573926306   -0.0381578510         -0.4095
H467       H    1.2529557639    0.5394788030   -0.0374170092          0.5514
H468       H    1.1715924082    0.5454288411    0.0582712852          -0.393
N469       N    1.2246378037    0.5755753992    0.0223422631          0.5768
N470       N    1.3625388073    0.5000000000    0.0000000000         -0.3747
C427       C    1.0000000000    0.5000000000   -0.1374611927          0.5724
C428       C    1.0284894133    0.4973989535   -0.1596405221         -0.4204
C429       C    1.0266244622    0.5108199969   -0.1933634596          0.5751
C430       C    0.9960903106    0.5263334804   -0.2051912893           0.564
C431       C    0.9681315242    0.5280430110   -0.1831337836          0.5576
C432       C    0.9699877812    0.5153397995   -0.1499486372          0.5616
C433       C    0.9912599622    0.5418583598   -0.2427633672          0.5585
C434       C    1.0499782929    0.5090422614   -0.2122263740         -0.4192
O435       O    1.0579020268    0.4794704849   -0.1493543286         -0.4066
H436       H    0.9462032881    0.5175426881   -0.1331699193           0.556
H437       H    0.9430437608    0.5398160744   -0.1922433044          0.5533
C438       C    0.9734815326    0.5147660386   -0.2685340988         -0.4101
N439       N    0.9811605370    0.5261073354   -0.3055964852          -0.412
N440       N    0.9789314722    0.5553138876   -0.3014058685            0.56
N441       N    0.9910286441    0.5581998213   -0.2674705734          0.5491
N442       N    0.9890932162    0.5013342147   -0.3300593050         -0.3834
H443       H    0.9845356450    0.4878942769   -0.2639375258         -0.3864
H444       H    0.9443977259    0.5134088268   -0.2638027929         -0.4095
H445       H    1.0170317783    0.5516577873   -0.2529557639          0.5514
H446       H    1.0676187146    0.4702169222   -0.1715924082          -0.393
N447       N    1.0771379289    0.5161417973   -0.2246378037          0.5768
N448       N    1.0000000000    0.5000000000   -0.3625388073         -0.3747
C405       C    1.0000000000    0.5000000000    0.1374611927          0.5724
C406       C    0.9715105867    0.4973989535    0.1596405221         -0.4204
C407       C    0.9733755378    0.5108199969    0.1933634596          0.5751
C408       C    1.0039096894    0.5263334804    0.2051912893           0.564
C409       C    1.0318684758    0.5280430110    0.1831337836          0.5576
C410       C    1.0300122188    0.5153397995    0.1499486372          0.5616
C411       C    1.0087400378    0.5418583598    0.2427633672          0.5585
C412       C    0.9500217071    0.5090422614    0.2122263740         -0.4192
O413       O    0.9420979732    0.4794704849    0.1493543286         -0.4066
H414       H    1.0537967119    0.5175426881    0.1331699193           0.556
H415       H    1.0569562392    0.5398160744    0.1922433044          0.5493
C416       C    1.0265184674    0.5147660386    0.2685340988         -0.4101
N417       N    1.0188394630    0.5261073354    0.3055964852          -0.412
N418       N    1.0210685278    0.5553138876    0.3014058685            0.56
N419       N    1.0089713559    0.5581998213    0.2674705734          0.5491
N420       N    1.0109067838    0.5013342147    0.3300593050         -0.3834
H421       H    1.0154643550    0.4878942769    0.2639375258         -0.3864
H422       H    1.0556022741    0.5134088268    0.2638027929         -0.4095
H423       H    0.9829682217    0.5516577873    0.2529557639          0.5514
H424       H    0.9323812854    0.4702169222    0.1715924082          -0.393
N425       N    0.9228620711    0.5161417973    0.2246378037          0.5768
N426       N    1.0000000000    0.5000000000    0.3625388073         -0.3747
C383       C    1.0000000000   -0.1374611927    0.5000000000          0.5724
C384       C    1.0284894133   -0.1596405221    0.5026010465         -0.4204
C385       C    1.0266244622   -0.1933634596    0.4891800031          0.5751
C386       C    0.9960903106   -0.2051912893    0.4736665196           0.564
C387       C    0.9681315242   -0.1831337836    0.4719569890          0.5576
C388       C    0.9699877812   -0.1499486372    0.4846602005          0.5616
C389       C    0.9912599622   -0.2427633672    0.4581416402          0.5585
C390       C    1.0499782929   -0.2122263740    0.4909577386         -0.4192
O391       O    1.0579020268   -0.1493543286    0.5205295151         -0.4066
H392       H    0.9462032881   -0.1331699193    0.4824573119           0.556
H393       H    0.9430437608   -0.1922433044    0.4601839256          0.5493
C394       C    0.9734815326   -0.2685340988    0.4852339614         -0.4101
N395       N    0.9811605370   -0.3055964852    0.4738926646          -0.412
N396       N    0.9789314722   -0.3014058685    0.4446861124            0.56
N397       N    0.9910286441   -0.2674705734    0.4418001787          0.5491
N398       N    0.9890932162   -0.3300593050    0.4986657853         -0.3834
H399       H    0.9845356450   -0.2639375258    0.5121057231         -0.3864
H400       H    0.9443977259   -0.2638027929    0.4865911732         -0.4095
H401       H    1.0170317783   -0.2529557639    0.4483422127          0.5514
H402       H    1.0676187146   -0.1715924082    0.5297830778          -0.393
N403       N    1.0771379289   -0.2246378037    0.4838582027          0.5768
N404       N    1.0000000000   -0.3625388073    0.5000000000         -0.3747
C361       C    1.0000000000    0.1374611927    0.5000000000          0.5724
C362       C    0.9737729871    0.1596405221    0.5114261062         -0.4204
C363       C    0.9713238496    0.1933634596    0.4980992847          0.5751
C364       C    0.9954322994    0.2051912893    0.4737726484           0.564
C365       C    1.0214358814    0.1831337836    0.4633596779          0.5576
C366       C    1.0236675887    0.1499486372    0.4760023341          0.5616
C367       C    0.9951367525    0.2427633672    0.4575163635          0.5585
C368       C    0.9497131584    0.2122263740    0.5071292225         -0.4192
O369       O    0.9514884657    0.1493543286    0.5376926615         -0.4066
H370       H    1.0455534380    0.1331699193    0.4664334034           0.556
H371       H    1.0415500913    0.1922433044    0.4442961143          0.5493
C372       C    1.0205313867    0.2685340988    0.4776454216         -0.4101
N373       N    1.0096761127    0.3055964852    0.4692934670          -0.412
N374       N    1.0026097267    0.3014058685    0.4408671127            0.56
N375       N    0.9902186531    0.2674705734    0.4419308199          0.5491
N376       N    1.0099342507    0.3300593050    0.4953043930         -0.3834
H377       H    1.0184861773    0.2639375258    0.5066299365         -0.3864
H378       H    1.0485671126    0.2638027929    0.4697899834         -0.4095
H379       H    0.9675908750    0.2529557639    0.4563163980          0.5514
H380       H    0.9451737738    0.1715924082    0.5495318807          -0.393
N381       N    0.9216986694    0.2246378037    0.5089285672          0.5768
N382       N    1.0000000000    0.3625388073    0.5000000000         -0.3747
C339       C    0.6374611927   -0.0000000000    0.5000000000          0.5724
C340       C    0.6596405221    0.0235243412    0.5162793575         -0.4204
C341       C    0.6933634596    0.0285028633    0.5036771051          0.5751
C342       C    0.7051912893    0.0095503165    0.4751498628           0.564
C343       C    0.6831337836   -0.0139506059    0.4599077213          0.5576
C344       C    0.6499486372   -0.0185835744    0.4718807275          0.5616
C345       C    0.7427633672    0.0129820005    0.4592571699          0.5585
C346       C    0.7122263740    0.0479609991    0.5167133125         -0.4192
O347       O    0.6493543286    0.0403124345    0.5463574516         -0.4066
H348       H    0.6331699193   -0.0382075143    0.4582625112           0.556
H349       H    0.6922433044   -0.0300013626    0.4373162604          0.5493
C350       C    0.7685340988   -0.0158240431    0.4740989446         -0.4101
N351       N    0.8055964852   -0.0035593112    0.4680023496          -0.412
N352       N    0.8014058685    0.0088675657    0.4414775658            0.56
N353       N    0.7674705734    0.0208194614    0.4449159329          0.5491
N354       N    0.8300593050   -0.0088394851    0.4934730126         -0.3834
H355       H    0.7639375258   -0.0194189732    0.5029322839         -0.3864
H356       H    0.7638027929   -0.0418130698    0.4609733844         -0.4095
H357       H    0.7529557639    0.0402404718    0.4634033760          0.5514
H358       H    0.6715924082    0.0442200161    0.5591938550          -0.393
N359       N    0.7246378037    0.0750995971    0.5238928483          0.5768
N360       N    0.8625388073   -0.0000000000    0.5000000000         -0.3747
C317       C    1.1374611927   -0.0000000000    0.5000000000          0.5724
C318       C    1.1596405221   -0.0245920439    0.4853834515         -0.4204
C319       C    1.1933634596   -0.0286887090    0.4982993248          0.5751
C320       C    1.2051912893   -0.0078120362    0.5254501464           0.564
C321       C    1.1831337836    0.0166850419    0.5390335701          0.5576
C322       C    1.1499486372    0.0204804170    0.5267692967          0.5616
C323       C    1.2427633672   -0.0101384023    0.5415418265          0.5585
C324       C    1.2122263740   -0.0490003614    0.4866374842         -0.4192
O325       O    1.1493543286   -0.0434164878    0.4565360577         -0.4066
H326       H    1.1331699193    0.0409976562    0.5390003116           0.556
H327       H    1.1922433044    0.0342570784    0.5604630925          0.5493
C328       C    1.2685340988    0.0175743373    0.5247468721         -0.4101
N329       N    1.3055964852    0.0057597354    0.5316756022          -0.412
N330       N    1.3014058685   -0.0048063916    0.5589949797            0.56
N331       N    1.2674705734   -0.0169671372    0.5563898987          0.5491
N332       N    1.3300593050    0.0092689790    0.5059011940         -0.3834
H333       H    1.2639375258    0.0191702195    0.4957341483         -0.3864
H334       H    1.2638027929    0.0444074685    0.5360470009         -0.4095
H335       H    1.2529557639   -0.0376180717    0.5392872644          0.5514
H336       H    1.1715924082   -0.0482008913    0.4440000325          -0.393
N337       N    1.2246378037   -0.0765698455    0.4813485536          0.5768
N338       N    1.3625388073   -0.0000000000    0.5000000000         -0.3747
C295       C   -0.0000000000   -0.3625388073    0.0000000000          0.5724
C296       C    0.0286065759   -0.3403594779   -0.0002755452         -0.4204
C297       C    0.0256563432   -0.3066365404    0.0129493773          0.5751
C298       C   -0.0060382950   -0.2948087107    0.0259283022           0.564
C299       C   -0.0340434996   -0.3168662164    0.0253584374          0.5576
C300       C   -0.0311603095   -0.3500513628    0.0128482620          0.5616
C301       C   -0.0121151960   -0.2572366328    0.0410089328          0.5585
C302       C    0.0490773919   -0.2877736260    0.0130767676         -0.4192
O303       O    0.0593797883   -0.3506456714   -0.0157526644         -0.4066
H304       H   -0.0550451695   -0.3668300807    0.0131095932           0.556
H305       H   -0.0600056023   -0.3077566956    0.0350522562          0.5493
C306       C   -0.0276314698   -0.2314659012    0.0125605291         -0.4101
N307       N   -0.0209002254   -0.1944035148    0.0244887506          -0.412
N308       N   -0.0254971135   -0.1985941315    0.0534172840            0.56
N309       N   -0.0136747083   -0.2325294266    0.0572774543          0.5491
N310       N   -0.0109791614   -0.1699406950    0.0004428071         -0.3834
H311       H   -0.0144286409   -0.2360624742   -0.0133232552         -0.3864
H312       H   -0.0565085671   -0.2361972071    0.0088425883         -0.4095
H313       H    0.0127743226   -0.2470442361    0.0528717803          0.5514
H314       H    0.0698168322   -0.3284075918   -0.0241853721          -0.393
N315       N    0.0755697007   -0.2753621963    0.0223615301          0.5768
N316       N    0.0000000000   -0.1374611927   -0.0000000000         -0.3747
C273       C   -0.0000000000    0.1374611927    0.0000000000          0.5724
C274       C   -0.0247973943    0.1596405221    0.0142653898         -0.4204
C275       C   -0.0287099909    0.1933634596    0.0012925707          0.5751
C276       C   -0.0074493638    0.2051912893   -0.0255586549           0.564
C277       C    0.0172383840    0.1831337836   -0.0387923746          0.5576
C278       C    0.0208589864    0.1499486372   -0.0264753737          0.5616
C279       C   -0.0095466827    0.2427633672   -0.0416817873          0.5585
C280       C   -0.0491854128    0.2122263740    0.0126644154         -0.4192
O281       O   -0.0440301241    0.1493543286    0.0428421973         -0.4066
H282       H    0.0415480675    0.1331699193   -0.0384134118           0.556
H283       H    0.0351133563    0.1922433044   -0.0599698689          0.5493
C284       C    0.0179244431    0.2685340988   -0.0244944759         -0.4101
N285       N    0.0062095571    0.3055964852   -0.0315905006          -0.412
N286       N   -0.0039670400    0.3014058685   -0.0590573588            0.56
N287       N   -0.0161635985    0.2674705734   -0.0566254581          0.5491
N288       N    0.0093519526    0.3300593050   -0.0057687993         -0.3834
H289       H    0.0191076241    0.2639375258    0.0045380070         -0.3864
H290       H    0.0449155411    0.2638027929   -0.0354119146         -0.4095
H291       H   -0.0370556322    0.2529557639   -0.0398181941          0.5514
H292       H   -0.0489922971    0.1715924082    0.0553089243          -0.393
N293       N   -0.0768273144    0.2246378037    0.0175607932          0.5768
N294       N    0.0000000000    0.3625388073    0.0000000000         -0.3747
C251       C   -0.3625388073   -0.0000000000    0.0000000000          0.5724
C252       C   -0.3403594779    0.0284705671   -0.0027998074         -0.4204
C253       C   -0.3066365404    0.0241164055   -0.0156311645          0.5751
C254       C   -0.2948087107   -0.0087893153   -0.0251293812           0.564
C255       C   -0.3168662164   -0.0365711539   -0.0215536752          0.5576
C256       C   -0.3500513628   -0.0323604459   -0.0094257236          0.5616
C257       C   -0.2572366328   -0.0164514381   -0.0394697445          0.5585
C258       C   -0.2877736260    0.0473881715   -0.0182743932         -0.4192
O259       O   -0.3506456714    0.0607286259    0.0092811471         -0.4066
H260       H   -0.3668300807   -0.0561351059   -0.0071191296           0.556
H261       H   -0.3077566956   -0.0634245449   -0.0284017617          0.5493
C262       C   -0.2314659012   -0.0288211195   -0.0095188279         -0.4101
N263       N   -0.1944035148   -0.0234105246   -0.0221012594          -0.412
N264       N   -0.1985941315   -0.0310891508   -0.0503683803            0.56
N265       N   -0.2325294266   -0.0197499633   -0.0554765119          0.5491
N266       N   -0.1699406950   -0.0109631775    0.0007394600         -0.3834
H267       H   -0.2360624742   -0.0129135324    0.0147964688         -0.3864
H268       H   -0.2361972071   -0.0571315445   -0.0027195872         -0.4095
H269       H   -0.2470442361    0.0070193292   -0.0539382747          0.5514
H270       H   -0.3284075918    0.0720113340    0.0165435808          -0.393
N271       N   -0.2753621963    0.0727294633   -0.0303519828          0.5768
N272       N   -0.1374611927   -0.0000000000    0.0000000000         -0.3747
C229       C    0.1374611927   -0.0000000000    0.0000000000          0.5724
C230       C    0.1596405221   -0.0266446204   -0.0104151964         -0.4204
C231       C    0.1933634596   -0.0285825342    0.0029955060          0.5751
C232       C    0.2051912893   -0.0035617905    0.0263827882           0.564
C233       C    0.1831337836    0.0228208339    0.0357941302          0.5576
C234       C    0.1499486372    0.0245676296    0.0230754047          0.5616
C235       C    0.2427633672   -0.0032357057    0.0426384891          0.5585
C236       C    0.2122263740   -0.0505226105   -0.0052017377         -0.4192
O237       O    0.1493543286   -0.0499169245   -0.0358107015         -0.4066
H238       H    0.1331699193    0.0468032664    0.0318007291           0.556
H239       H    0.1922433044    0.0436490699    0.0540748709          0.5493
C240       C    0.2685340988    0.0213709108    0.0215534031         -0.4101
N241       N    0.3055964852    0.0108428341    0.0303142091          -0.412
N242       N    0.3014058685    0.0048682440    0.0589899079            0.56
N243       N    0.2674705734   -0.0075544347    0.0584006416          0.5491
N244       N    0.3300593050    0.0101064850    0.0043124265         -0.3834
H245       H    0.2639375258    0.0182192288   -0.0073317468         -0.3864
H246       H    0.2638027929    0.0496864291    0.0283314011         -0.4095
H247       H    0.2529557639   -0.0307155801    0.0448905514          0.5514
H248       H    0.1715924082   -0.0566795692   -0.0473998810          -0.393
N249       N    0.2246378037   -0.0785854062   -0.0059288803          0.5768
N250       N    0.3625388073   -0.0000000000    0.0000000000         -0.3747
C207       C   -0.0000000000    0.0000000000   -0.1374611927          0.5724
C208       C   -0.0286072698   -0.0001903294   -0.1596405221         -0.4204
C209       C   -0.0254420697   -0.0133654558   -0.1933634596          0.5751
C210       C    0.0064597186   -0.0258265348   -0.2051912893           0.564
C211       C    0.0344519299   -0.0248007004   -0.1831337836          0.5576
C212       C    0.0313654026   -0.0123391346   -0.1499486372          0.5616
C213       C    0.0127813913   -0.0408062077   -0.2427633672          0.5585
C214       C   -0.0488579384   -0.0138742246   -0.2122263740         -0.4192
O215       O   -0.0596284358    0.0147836174   -0.1493543286         -0.4066
H216       H    0.0552513512   -0.0122114829   -0.1331699193           0.556
H217       H    0.0605684471   -0.0340704592   -0.1922433044          0.5493
C218       C    0.0278323453   -0.0121089045   -0.2685340988         -0.4101
N219       N    0.0212962362   -0.0241451579   -0.3055964852          -0.412
N220       N    0.0263635956   -0.0529949984   -0.3014058685            0.56
N221       N    0.0146056182   -0.0570471764   -0.2674705734          0.5491
N222       N    0.0109849164   -0.0002639605   -0.3300593050         -0.3834
H223       H    0.0142097678    0.0135564489   -0.2639375258         -0.3864
H224       H    0.0566450696   -0.0079212134   -0.2638027929         -0.4095
H225       H   -0.0119116489   -0.0530727904   -0.2529557639          0.5514
H226       H   -0.0702014165    0.0230452470   -0.1715924082          -0.393
N227       N   -0.0751955385   -0.0235891645   -0.2246378037          0.5768
N228       N    0.0000000000    0.0000000000   -0.3625388073         -0.3747
C185       C    0.0000000000    0.0000000000    0.1374611927          0.5724
C186       C    0.0238975064   -0.0157264522    0.1596405221         -0.4204
C187       C    0.0140726489   -0.0250578305    0.1933634596          0.5751
C188       C   -0.0194732278   -0.0181529960    0.2051912893           0.564
C189       C   -0.0424000657   -0.0020602543    0.1831337836          0.5576
C190       C   -0.0330295005    0.0067152675    0.1499486372          0.5616
C191       C   -0.0329282707   -0.0272807540    0.2427633672          0.5585
C192       C    0.0334413667   -0.0382265254    0.2122263740         -0.4192
O193       O    0.0580719419   -0.0200438334    0.1493543286         -0.4066
H194       H   -0.0529999948    0.0198200068    0.1331699193           0.556
H195       H   -0.0693556151    0.0043739706    0.1922433044          0.5493
C196       C   -0.0299400371    0.0049858989    0.2685340988         -0.4101
N197       N   -0.0310059175   -0.0086689910    0.3055964852          -0.412
N198       N   -0.0509561214   -0.0301161538    0.3014058685            0.56
N199       N   -0.0432963629   -0.0399140249    0.2674705734          0.5491
N200       N   -0.0093598171    0.0057560304    0.3300593050         -0.3834
H201       H   -0.0045449846    0.0191059656    0.2639375258         -0.3864
H202       H   -0.0518347353    0.0241778771    0.2638027929         -0.4095
H203       H   -0.0188860900   -0.0510090587    0.2529557639          0.5514
H204       H    0.0714381171   -0.0188657816    0.1715924082          -0.393
N205       N    0.0502517962   -0.0607089340    0.2246378037          0.5768
N206       N    0.0000000000    0.0000000000    0.3625388073         -0.3747
loop_
_geom_bond_atom_site_label_1
_geom_bond_atom_site_label_2
_geom_bond_distance
_geom_bond_site_symmetry_2
_ccdc_geom_bond_type
Zn1          O5 1.942       .   S
Zn1          O6 1.922       .   S
Zn1         O10 1.922       .   S
Zn1         O17 1.922       .   S
Zn2          O5 1.942       .   S
Zn2          O7 1.922       .   S
Zn2          O9 1.922       .   S
Zn2         O13 1.922       .   S
Zn3          O5 1.942       .   S
Zn3          O8 1.922       .   S
Zn3         O11 1.922       .   S
Zn3         O14 1.922       .   S
Zn4          O5 1.942       .   S
Zn4         O12 1.922       .   S
Zn4         O15 1.922       .   S
Zn4         O16 1.922       .   S
O6          C18 1.304       .   A
O7          C19 1.304       .   A
O8          C20 1.304       .   A
O9          C18 1.304       .   A
O10         C20 1.304       .   A
O11         C19 1.304       .   A
O12         C21 1.304       .   A
O13         C22 1.304       .   A
O14         C21 1.304       .   A
O15         C22 1.304       .   A
O16         C23 1.304       .   A
O17         C23 1.304       .   A
C18        C273 1.540       .   S
C19        C185 1.540       .   S
C20        N272 1.540       .   S
C21        N316 1.540       .   S
C22        C229 1.540       .   S
C23        C207 1.540       .   S
Zn24        O28 1.942       .   S
Zn24        O29 1.922       .   S
Zn24        O33 1.922       .   S
Zn24        O40 1.922       .   S
Zn25        O28 1.942       .   S
Zn25        O30 1.922       .   S
Zn25        O32 1.922       .   S
Zn25        O36 1.922       .   S
Zn26        O28 1.942       .   S
Zn26        O31 1.922       .   S
Zn26        O34 1.922       .   S
Zn26        O37 1.922       .   S
Zn27        O28 1.942       .   S
Zn27        O35 1.922       .   S
Zn27        O38 1.922       .   S
Zn27        O39 1.922       .   S
O29         C41 1.304       .   A
O30         C42 1.304       .   A
O31         C43 1.304       .   A
O32         C41 1.304       .   A
O33         C43 1.304       .   A
O34         C42 1.304       .   A
O35         C44 1.304       .   A
O36         C45 1.304       .   A
O37         C44 1.304       .   A
O38         C45 1.304       .   A
O39         C46 1.304       .   A
O40         C46 1.304       .   A
C41        C361 1.540       .   S
C42        N360 1.540       .   S
C43        N206 1.540   1_655   S
C44        C383 1.540       .   S
C45        N228 1.540   1_656   S
C46        C317 1.540       .   S
Zn47        O51 1.942       .   S
Zn47        O52 1.922       .   S
Zn47        O56 1.922       .   S
Zn47        O63 1.922       .   S
Zn48        O51 1.942       .   S
Zn48        O53 1.922       .   S
Zn48        O55 1.922       .   S
Zn48        O59 1.922       .   S
Zn49        O51 1.942       .   S
Zn49        O54 1.922       .   S
Zn49        O57 1.922       .   S
Zn49        O60 1.922       .   S
Zn50        O51 1.942       .   S
Zn50        O58 1.922       .   S
Zn50        O61 1.922       .   S
Zn50        O62 1.922       .   S
O52         C64 1.304       .   A
O53         C65 1.304       .   A
O54         C66 1.304       .   A
O55         C64 1.304       .   A
O56         C66 1.304       .   A
O57         C65 1.304       .   A
O58         C67 1.304       .   A
O59         C68 1.304       .   A
O60         C67 1.304       .   A
O61         C68 1.304       .   A
O62         C69 1.304       .   A
O63         C69 1.304       .   A
C64        N294 1.540   1_655   S
C65        C405 1.540       .   S
C66        C449 1.540       .   S
C67        C295 1.540   1_665   S
C68        C471 1.540       .   S
C69        C427 1.540       .   S
Zn70        O74 1.942       .   S
Zn70        O75 1.922       .   S
Zn70        O79 1.922       .   S
Zn70        O86 1.922       .   S
Zn71        O74 1.942       .   S
Zn71        O76 1.922       .   S
Zn71        O78 1.922       .   S
Zn71        O82 1.922       .   S
Zn72        O74 1.942       .   S
Zn72        O77 1.922       .   S
Zn72        O80 1.922       .   S
Zn72        O83 1.922       .   S
Zn73        O74 1.942       .   S
Zn73        O81 1.922       .   S
Zn73        O84 1.922       .   S
Zn73        O85 1.922       .   S
O75         C87 1.304       .   A
O76         C88 1.304       .   A
O77         C89 1.304       .   A
O78         C87 1.304       .   A
O79         C89 1.304       .   A
O80         C88 1.304       .   A
O81         C90 1.304       .   A
O82         C91 1.304       .   A
O83         C90 1.304       .   A
O84         C91 1.304       .   A
O85         C92 1.304       .   A
O86         C92 1.304       .   A
C87        N382 1.540       .   S
C88        C493 1.540       .   S
C89        N426 1.540       .   S
C90        N404 1.540   1_565   S
C91        N448 1.540   1_556   S
C92        N536 1.540       .   S
Zn93        O97 1.942       .   S
Zn93        O98 1.922       .   S
Zn93       O102 1.922       .   S
Zn93       O109 1.922       .   S
Zn94        O97 1.942       .   S
Zn94        O99 1.922       .   S
Zn94       O101 1.922       .   S
Zn94       O105 1.922       .   S
Zn95        O97 1.942       .   S
Zn95       O100 1.922       .   S
Zn95       O103 1.922       .   S
Zn95       O106 1.922       .   S
Zn96        O97 1.942       .   S
Zn96       O104 1.922       .   S
Zn96       O107 1.922       .   S
Zn96       O108 1.922       .   S
O98        C110 1.304       .   A
O99        C111 1.304       .   A
O100       C112 1.304       .   A
O101       C110 1.304       .   A
O102       C112 1.304       .   A
O103       C111 1.304       .   A
O104       C113 1.304       .   A
O105       C114 1.304       .   A
O106       C113 1.304       .   A
O107       C114 1.304       .   A
O108       C115 1.304       .   A
O109       C115 1.304       .   A
C110       N250 1.540   1_565   S
C111       N558 1.540       .   S
C112       C603 1.540       .   S
C113       C251 1.540   1_665   S
C114       C581 1.540       .   S
C115       C559 1.540       .   S
Zn116      O120 1.942       .   S
Zn116      O121 1.922       .   S
Zn116      O125 1.922       .   S
Zn116      O132 1.922       .   S
Zn117      O120 1.942       .   S
Zn117      O122 1.922       .   S
Zn117      O124 1.922       .   S
Zn117      O128 1.922       .   S
Zn118      O120 1.942       .   S
Zn118      O123 1.922       .   S
Zn118      O126 1.922       .   S
Zn118      O129 1.922       .   S
Zn119      O120 1.942       .   S
Zn119      O127 1.922       .   S
Zn119      O130 1.922       .   S
Zn119      O131 1.922       .   S
O121       C133 1.304       .   A
O122       C134 1.304       .   A
O123       C135 1.304       .   A
O124       C133 1.304       .   A
O125       C135 1.304       .   A
O126       C134 1.304       .   A
O127       C136 1.304       .   A
O128       C137 1.304       .   A
O129       C136 1.304       .   A
O130       C137 1.304       .   A
O131       C138 1.304       .   A
O132       C138 1.304       .   A
C133       C339 1.540   1_565   S
C134       C537 1.540       .   S
C135       C647 1.540       .   S
C136       N338 1.540   1_465   S
C137       C625 1.540       .   S
C138       N580 1.540   1_556   S
Zn139      O143 1.942       .   S
Zn139      O144 1.922       .   S
Zn139      O148 1.922       .   S
Zn139      O155 1.922       .   S
Zn140      O143 1.942       .   S
Zn140      O145 1.922       .   S
Zn140      O147 1.922       .   S
Zn140      O151 1.922       .   S
Zn141      O143 1.942       .   S
Zn141      O146 1.922       .   S
Zn141      O149 1.922       .   S
Zn141      O152 1.922       .   S
Zn142      O143 1.942       .   S
Zn142      O150 1.922       .   S
Zn142      O153 1.922       .   S
Zn142      O154 1.922       .   S
O144       C156 1.304       .   A
O145       C157 1.304       .   A
O146       C158 1.304       .   A
O147       C156 1.304       .   A
O148       C158 1.304       .   A
O149       C157 1.304       .   A
O150       C159 1.304       .   A
O151       C160 1.304       .   A
O152       C159 1.304       .   A
O153       C160 1.304       .   A
O154       C161 1.304       .   A
O155       C161 1.304       .   A
C156       N470 1.540   1_455   S
C157       N602 1.540   1_545   S
C158       C691 1.540       .   S
C159       N492 1.540       .   S
C160       N690 1.540       .   S
C161       N624 1.540       .   S
Zn162      O166 1.942       .   S
Zn162      O167 1.922       .   S
Zn162      O171 1.922       .   S
Zn162      O178 1.922       .   S
Zn163      O166 1.942       .   S
Zn163      O168 1.922       .   S
Zn163      O170 1.922       .   S
Zn163      O174 1.922       .   S
Zn164      O166 1.942       .   S
Zn164      O169 1.922       .   S
Zn164      O172 1.922       .   S
Zn164      O175 1.922       .   S
Zn165      O166 1.942       .   S
Zn165      O173 1.922       .   S
Zn165      O176 1.922       .   S
Zn165      O177 1.922       .   S
O167       C179 1.304       .   A
O168       C180 1.304       .   A
O169       C181 1.304       .   A
O170       C179 1.304       .   A
O171       C181 1.304       .   A
O172       C180 1.304       .   A
O173       C182 1.304       .   A
O174       C183 1.304       .   A
O175       C182 1.304       .   A
O176       C183 1.304       .   A
O177       C184 1.304       .   A
O178       C184 1.304       .   A
C179       N646 1.540   1_545   S
C180       C515 1.540       .   S
C181       C669 1.540       .   S
C182       N668 1.540       .   S
C183       N712 1.540   1_556   S
C184       N514 1.540   1_455   S
C691       C692 0.035       .   A
C691       C696 0.034       .   A
C692       C693 0.035       .   A
C692       O699 0.034       .   A
C693       C694 0.035       .   A
C693       C698 0.029       .   A
C694       C695 0.034       .   A
C694       C697 0.039       .   A
C695       C696 0.034       .   A
C695       H701 0.028       .   A
C696       H700 0.028       .   A
C697       C702 0.040       .   A
C697       N705 0.028       .   A
C697       H709 0.028       .   A
C698       N711 0.029       .   A
O699       H710 0.025       .   A
C702       N703 0.038       .   A
C702       H707 0.028       .   A
C702       H708 0.028       .   A
N703       N704 0.028       .   A
N703       N706 0.034       .   A
N704       N705 0.035       .   A
N706       N712 0.033       .   A
C669       C670 0.035       .   A
C669       C674 0.034       .   A
C670       C671 0.035       .   A
C670       O677 0.034       .   A
C671       C672 0.035       .   A
C671       C676 0.029       .   A
C672       C673 0.034       .   A
C672       C675 0.039       .   A
C673       C674 0.034       .   A
C673       H679 0.028       .   A
C674       H678 0.028       .   A
C675       C680 0.040       .   A
C675       N683 0.028       .   A
C675       H687 0.028       .   A
C676       N689 0.029       .   A
O677       H688 0.025       .   A
C680       N681 0.038       .   A
C680       H685 0.028       .   A
C680       H686 0.028       .   A
N681       N682 0.028       .   A
N681       N684 0.034       .   A
N682       N683 0.035       .   A
N684       N690 0.033       .   A
C647       C648 0.035       .   A
C647       C652 0.034       .   A
C648       C649 0.035       .   A
C648       O655 0.034       .   A
C649       C650 0.035       .   A
C649       C654 0.029       .   A
C650       C651 0.034       .   A
C650       C653 0.039       .   A
C651       C652 0.034       .   A
C651       H657 0.028       .   A
C652       H656 0.028       .   A
C653       C658 0.040       .   A
C653       N661 0.028       .   A
C653       H665 0.028       .   A
C654       N667 0.029       .   A
O655       H666 0.025       .   A
C658       N659 0.038       .   A
C658       H663 0.028       .   A
C658       H664 0.028       .   A
N659       N660 0.028       .   A
N659       N662 0.034       .   A
N660       N661 0.035       .   A
N662       N668 0.033       .   A
C625       C626 0.035       .   A
C625       C630 0.034       .   A
C626       C627 0.035       .   A
C626       O633 0.034       .   A
C627       C628 0.035       .   A
C627       C632 0.029       .   A
C628       C629 0.034       .   A
C628       C631 0.039       .   A
C629       C630 0.034       .   A
C629       H635 0.028       .   A
C630       H634 0.028       .   A
C631       C636 0.040       .   A
C631       N639 0.028       .   A
C631       H643 0.028       .   A
C632       N645 0.029       .   A
O633       H644 0.025       .   A
C636       N637 0.038       .   A
C636       H641 0.028       .   A
C636       H642 0.028       .   A
N637       N638 0.028       .   A
N637       N640 0.034       .   A
N638       N639 0.035       .   A
N640       N646 0.033       .   A
C603       C604 0.035       .   A
C603       C608 0.034       .   A
C604       C605 0.035       .   A
C604       O611 0.034       .   A
C605       C606 0.035       .   A
C605       C610 0.029       .   A
C606       C607 0.034       .   A
C606       C609 0.039       .   A
C607       C608 0.034       .   A
C607       H613 0.028       .   A
C608       H612 0.028       .   A
C609       C614 0.040       .   A
C609       N617 0.028       .   A
C609       H621 0.028       .   A
C610       N623 0.029       .   A
O611       H622 0.025       .   A
C614       N615 0.038       .   A
C614       H619 0.028       .   A
C614       H620 0.028       .   A
N615       N616 0.028       .   A
N615       N618 0.034       .   A
N616       N617 0.035       .   A
N618       N624 0.033       .   A
C581       C582 0.035       .   A
C581       C586 0.034       .   A
C582       C583 0.035       .   A
C582       O589 0.034       .   A
C583       C584 0.035       .   A
C583       C588 0.029       .   A
C584       C585 0.034       .   A
C584       C587 0.039       .   A
C585       C586 0.034       .   A
C585       H591 0.028       .   A
C586       H590 0.028       .   A
C587       C592 0.040       .   A
C587       N595 0.028       .   A
C587       H599 0.028       .   A
C588       N601 0.029       .   A
O589       H600 0.025       .   A
C592       N593 0.038       .   A
C592       H597 0.028       .   A
C592       H598 0.028       .   A
N593       N594 0.028       .   A
N593       N596 0.034       .   A
N594       N595 0.035       .   A
N596       N602 0.033       .   A
C559       C560 0.035       .   A
C559       C564 0.034       .   A
C560       C561 0.035       .   A
C560       O567 0.034       .   A
C561       C562 0.035       .   A
C561       C566 0.029       .   A
C562       C563 0.034       .   A
C562       C565 0.039       .   A
C563       C564 0.034       .   A
C563       H569 0.028       .   A
C564       H568 0.028       .   A
C565       C570 0.040       .   A
C565       N573 0.028       .   A
C565       H577 0.028       .   A
C566       N579 0.029       .   A
O567       H578 0.025       .   A
C570       N571 0.038       .   A
C570       H575 0.028       .   A
C570       H576 0.028       .   A
N571       N572 0.028       .   A
N571       N574 0.034       .   A
N572       N573 0.035       .   A
N574       N580 0.033       .   A
C537       C538 0.035       .   A
C537       C542 0.034       .   A
C538       C539 0.035       .   A
C538       O545 0.034       .   A
C539       C540 0.035       .   A
C539       C544 0.029       .   A
C540       C541 0.034       .   A
C540       C543 0.039       .   A
C541       C542 0.034       .   A
C541       H547 0.028       .   A
C542       H546 0.028       .   A
C543       C548 0.040       .   A
C543       N551 0.028       .   A
C543       H555 0.028       .   A
C544       N557 0.029       .   A
O545       H556 0.025       .   A
C548       N549 0.038       .   A
C548       H553 0.028       .   A
C548       H554 0.028       .   A
N549       N550 0.028       .   A
N549       N552 0.034       .   A
N550       N551 0.035       .   A
N552       N558 0.033       .   A
C515       C516 0.035       .   A
C515       C520 0.034       .   A
C516       C517 0.035       .   A
C516       O523 0.034       .   A
C517       C518 0.035       .   A
C517       C522 0.029       .   A
C518       C519 0.034       .   A
C518       C521 0.039       .   A
C519       C520 0.034       .   A
C519       H525 0.028       .   A
C520       H524 0.028       .   A
C521       C526 0.040       .   A
C521       N529 0.028       .   A
C521       H533 0.028       .   A
C522       N535 0.029       .   A
O523       H534 0.025       .   A
C526       N527 0.038       .   A
C526       H531 0.028       .   A
C526       H532 0.028       .   A
N527       N528 0.028       .   A
N527       N530 0.034       .   A
N528       N529 0.035       .   A
N530       N536 0.033       .   A
C493       C494 0.035       .   A
C493       C498 0.034       .   A
C494       C495 0.035       .   A
C494       O501 0.034       .   A
C495       C496 0.035       .   A
C495       C500 0.029       .   A
C496       C497 0.034       .   A
C496       C499 0.039       .   A
C497       C498 0.034       .   A
C497       H503 0.028       .   A
C498       H502 0.028       .   A
C499       C504 0.040       .   A
C499       N507 0.028       .   A
C499       H511 0.028       .   A
C500       N513 0.029       .   A
O501       H512 0.025       .   A
C504       N505 0.038       .   A
C504       H509 0.028       .   A
C504       H510 0.028       .   A
N505       N506 0.028       .   A
N505       N508 0.034       .   A
N506       N507 0.035       .   A
N508       N514 0.033       .   A
C471       C472 0.035       .   A
C471       C476 0.034       .   A
C472       C473 0.035       .   A
C472       O479 0.034       .   A
C473       C474 0.035       .   A
C473       C478 0.029       .   A
C474       C475 0.034       .   A
C474       C477 0.039       .   A
C475       C476 0.034       .   A
C475       H481 0.028       .   A
C476       H480 0.028       .   A
C477       C482 0.040       .   A
C477       N485 0.028       .   A
C477       H489 0.028       .   A
C478       N491 0.029       .   A
O479       H490 0.025       .   A
C482       N483 0.038       .   A
C482       H487 0.028       .   A
C482       H488 0.028       .   A
N483       N484 0.028       .   A
N483       N486 0.034       .   A
N484       N485 0.035       .   A
N486       N492 0.033       .   A
C449       C450 0.035       .   A
C449       C454 0.034       .   A
C450       C451 0.035       .   A
C450       O457 0.034       .   A
C451       C452 0.035       .   A
C451       C456 0.029       .   A
C452       C453 0.034       .   A
C452       C455 0.039       .   A
C453       C454 0.034       .   A
C453       H459 0.028       .   A
C454       H458 0.028       .   A
C455       C460 0.040       .   A
C455       N463 0.028       .   A
C455       H467 0.028       .   A
C456       N469 0.029       .   A
O457       H468 0.025       .   A
C460       N461 0.038       .   A
C460       H465 0.028       .   A
C460       H466 0.028       .   A
N461       N462 0.028       .   A
N461       N464 0.034       .   A
N462       N463 0.035       .   A
N464       N470 0.033       .   A
C427       C428 0.035       .   A
C427       C432 0.034       .   A
C428       C429 0.035       .   A
C428       O435 0.034       .   A
C429       C430 0.035       .   A
C429       C434 0.029       .   A
C430       C431 0.034       .   A
C430       C433 0.039       .   A
C431       C432 0.034       .   A
C431       H437 0.028       .   A
C432       H436 0.028       .   A
C433       C438 0.040       .   A
C433       N441 0.028       .   A
C433       H445 0.028       .   A
C434       N447 0.029       .   A
O435       H446 0.025       .   A
C438       N439 0.038       .   A
C438       H443 0.028       .   A
C438       H444 0.028       .   A
N439       N440 0.028       .   A
N439       N442 0.034       .   A
N440       N441 0.035       .   A
N442       N448 0.033       .   A
C405       C406 0.035       .   A
C405       C410 0.034       .   A
C406       C407 0.035       .   A
C406       O413 0.034       .   A
C407       C408 0.035       .   A
C407       C412 0.029       .   A
C408       C409 0.034       .   A
C408       C411 0.039       .   A
C409       C410 0.034       .   A
C409       H415 0.028       .   A
C410       H414 0.028       .   A
C411       C416 0.040       .   A
C411       N419 0.028       .   A
C411       H423 0.028       .   A
C412       N425 0.029       .   A
O413       H424 0.025       .   A
C416       N417 0.038       .   A
C416       H421 0.028       .   A
C416       H422 0.028       .   A
N417       N418 0.028       .   A
N417       N420 0.034       .   A
N418       N419 0.035       .   A
N420       N426 0.033       .   A
C383       C384 0.035       .   A
C383       C388 0.034       .   A
C384       C385 0.035       .   A
C384       O391 0.034       .   A
C385       C386 0.035       .   A
C385       C390 0.029       .   A
C386       C387 0.034       .   A
C386       C389 0.039       .   A
C387       C388 0.034       .   A
C387       H393 0.028       .   A
C388       H392 0.028       .   A
C389       C394 0.040       .   A
C389       N397 0.028       .   A
C389       H401 0.028       .   A
C390       N403 0.029       .   A
O391       H402 0.025       .   A
C394       N395 0.038       .   A
C394       H399 0.028       .   A
C394       H400 0.028       .   A
N395       N396 0.028       .   A
N395       N398 0.034       .   A
N396       N397 0.035       .   A
N398       N404 0.033       .   A
C361       C362 0.035       .   A
C361       C366 0.034       .   A
C362       C363 0.035       .   A
C362       O369 0.034       .   A
C363       C364 0.035       .   A
C363       C368 0.029       .   A
C364       C365 0.034       .   A
C364       C367 0.039       .   A
C365       C366 0.034       .   A
C365       H371 0.028       .   A
C366       H370 0.028       .   A
C367       C372 0.040       .   A
C367       N375 0.028       .   A
C367       H379 0.028       .   A
C368       N381 0.029       .   A
O369       H380 0.025       .   A
C372       N373 0.038       .   A
C372       H377 0.028       .   A
C372       H378 0.028       .   A
N373       N374 0.028       .   A
N373       N376 0.034       .   A
N374       N375 0.035       .   A
N376       N382 0.033       .   A
C339       C340 0.035       .   A
C339       C344 0.034       .   A
C340       C341 0.035       .   A
C340       O347 0.034       .   A
C341       C342 0.035       .   A
C341       C346 0.029       .   A
C342       C343 0.034       .   A
C342       C345 0.039       .   A
C343       C344 0.034       .   A
C343       H349 0.028       .   A
C344       H348 0.028       .   A
C345       C350 0.040       .   A
C345       N353 0.028       .   A
C345       H357 0.028       .   A
C346       N359 0.029       .   A
O347       H358 0.025       .   A
C350       N351 0.038       .   A
C350       H355 0.028       .   A
C350       H356 0.028       .   A
N351       N352 0.028       .   A
N351       N354 0.034       .   A
N352       N353 0.035       .   A
N354       N360 0.033       .   A
C317       C318 0.035       .   A
C317       C322 0.034       .   A
C318       C319 0.035       .   A
C318       O325 0.034       .   A
C319       C320 0.035       .   A
C319       C324 0.029       .   A
C320       C321 0.034       .   A
C320       C323 0.039       .   A
C321       C322 0.034       .   A
C321       H327 0.028       .   A
C322       H326 0.028       .   A
C323       C328 0.040       .   A
C323       N331 0.028       .   A
C323       H335 0.028       .   A
C324       N337 0.029       .   A
O325       H336 0.025       .   A
C328       N329 0.038       .   A
C328       H333 0.028       .   A
C328       H334 0.028       .   A
N329       N330 0.028       .   A
N329       N332 0.034       .   A
N330       N331 0.035       .   A
N332       N338 0.033       .   A
C295       C296 0.035       .   A
C295       C300 0.034       .   A
C296       C297 0.035       .   A
C296       O303 0.034       .   A
C297       C298 0.035       .   A
C297       C302 0.029       .   A
C298       C299 0.034       .   A
C298       C301 0.039       .   A
C299       C300 0.034       .   A
C299       H305 0.028       .   A
C300       H304 0.028       .   A
C301       C306 0.040       .   A
C301       N309 0.028       .   A
C301       H313 0.028       .   A
C302       N315 0.029       .   A
O303       H314 0.025       .   A
C306       N307 0.038       .   A
C306       H311 0.028       .   A
C306       H312 0.028       .   A
N307       N308 0.028       .   A
N307       N310 0.034       .   A
N308       N309 0.035       .   A
N310       N316 0.033       .   A
C273       C274 0.035       .   A
C273       C278 0.034       .   A
C274       C275 0.035       .   A
C274       O281 0.034       .   A
C275       C276 0.035       .   A
C275       C280 0.029       .   A
C276       C277 0.034       .   A
C276       C279 0.039       .   A
C277       C278 0.034       .   A
C277       H283 0.028       .   A
C278       H282 0.028       .   A
C279       C284 0.040       .   A
C279       N287 0.028       .   A
C279       H291 0.028       .   A
C280       N293 0.029       .   A
O281       H292 0.025       .   A
C284       N285 0.038       .   A
C284       H289 0.028       .   A
C284       H290 0.028       .   A
N285       N286 0.028       .   A
N285       N288 0.034       .   A
N286       N287 0.035       .   A
N288       N294 0.033       .   A
C251       C252 0.035       .   A
C251       C256 0.034       .   A
C252       C253 0.035       .   A
C252       O259 0.034       .   A
C253       C254 0.035       .   A
C253       C258 0.029       .   A
C254       C255 0.034       .   A
C254       C257 0.039       .   A
C255       C256 0.034       .   A
C255       H261 0.028       .   A
C256       H260 0.028       .   A
C257       C262 0.040       .   A
C257       N265 0.028       .   A
C257       H269 0.028       .   A
C258       N271 0.029       .   A
O259       H270 0.025       .   A
C262       N263 0.038       .   A
C262       H267 0.028       .   A
C262       H268 0.028       .   A
N263       N264 0.028       .   A
N263       N266 0.034       .   A
N264       N265 0.035       .   A
N266       N272 0.033       .   A
C229       C230 0.035       .   A
C229       C234 0.034       .   A
C230       C231 0.035       .   A
C230       O237 0.034       .   A
C231       C232 0.035       .   A
C231       C236 0.029       .   A
C232       C233 0.034       .   A
C232       C235 0.039       .   A
C233       C234 0.034       .   A
C233       H239 0.028       .   A
C234       H238 0.028       .   A
C235       C240 0.040       .   A
C235       N243 0.028       .   A
C235       H247 0.028       .   A
C236       N249 0.029       .   A
O237       H248 0.025       .   A
C240       N241 0.038       .   A
C240       H245 0.028       .   A
C240       H246 0.028       .   A
N241       N242 0.028       .   A
N241       N244 0.034       .   A
N242       N243 0.035       .   A
N244       N250 0.033       .   A
C207       C208 0.035       .   A
C207       C212 0.034       .   A
C208       C209 0.035       .   A
C208       O215 0.034       .   A
C209       C210 0.035       .   A
C209       C214 0.029       .   A
C210       C211 0.034       .   A
C210       C213 0.039       .   A
C211       C212 0.034       .   A
C211       H217 0.028       .   A
C212       H216 0.028       .   A
C213       C218 0.040       .   A
C213       N221 0.028       .   A
C213       H225 0.028       .   A
C214       N227 0.029       .   A
O215       H226 0.025       .   A
C218       N219 0.038       .   A
C218       H223 0.028       .   A
C218       H224 0.028       .   A
N219       N220 0.028       .   A
N219       N222 0.034       .   A
N220       N221 0.035       .   A
N222       N228 0.033       .   A
C185       C186 0.035       .   A
C185       C190 0.034       .   A
C186       C187 0.035       .   A
C186       O193 0.034       .   A
C187       C188 0.035       .   A
C187       C192 0.029       .   A
C188       C189 0.034       .   A
C188       C191 0.039       .   A
C189       C190 0.034       .   A
C189       H195 0.028       .   A
C190       H194 0.028       .   A
C191       C196 0.040       .   A
C191       N199 0.028       .   A
C191       H203 0.028       .   A
C192       N205 0.029       .   A
O193       H204 0.025       .   A
C196       N197 0.038       .   A
C196       H201 0.028       .   A
C196       H202 0.028       .   A
N197       N198 0.028       .   A
N197       N200 0.034       .   A
N198       N199 0.035       .   A
N200       N206 0.033       .   A
