data_pcu_v1-6c_Zn_1_Ch_Test1_BOND_CHECK
_audit_creation_date              2020-12-02
_audit_creation_method            'tobacco_3.0'
_symmetry_space_group_name_H-M    'P1'
_symmetry_Int_Tables_number       1
_symmetry_cell_setting            triclinic
loop_
_symmetry_equiv_pos_as_xyz
  x,y,z
_cell_length_a                    32.96682548334151
_cell_length_b                    32.96682548334151
_cell_length_c                    32.96682548334151
_cell_angle_alpha                 90.0
_cell_angle_beta                  90.0
_cell_angle_gamma                 90.0
loop_
_atom_site_label
_atom_site_type_symbol
_atom_site_fract_x
_atom_site_fract_y
_atom_site_fract_z
Zn1       Zn   -0.0340099474   -0.0340099474   -0.0340099474
Zn2       Zn   -0.0340099474    0.0340099474    0.0340099474
Zn3       Zn    0.0340099474   -0.0340099474    0.0340099474
Zn4       Zn    0.0340099474    0.0340099474   -0.0340099474
O5         O    0.0000000000    0.0000000000    0.0000000000
O6         O   -0.0908974387   -0.0249948240   -0.0249948240
O7         O   -0.0249948240    0.0249948240    0.0908974387
O8         O    0.0249948240   -0.0908974387    0.0249948240
O9         O   -0.0908974387    0.0249948240    0.0249948240
O10        O   -0.0249948240   -0.0908974387   -0.0249948240
O11        O    0.0249948240   -0.0249948240    0.0908974387
O12        O    0.0908974387    0.0249948240   -0.0249948240
O13        O   -0.0249948240    0.0908974387    0.0249948240
O14        O    0.0908974387   -0.0249948240    0.0249948240
O15        O    0.0249948240    0.0908974387   -0.0249948240
O16        O    0.0249948240    0.0249948240   -0.0908974387
O17        O   -0.0249948240   -0.0249948240   -0.0908974387
C18        C   -0.1086789507    0.0000000000   -0.0000000000
C19        C    0.0000000000    0.0000000000    0.1086789507
C20        C   -0.0000000000   -0.1086789507   -0.0000000000
C21        C    0.1086789507   -0.0000000000    0.0000000000
C22        C    0.0000000000    0.1086789507    0.0000000000
C23        C   -0.0000000000   -0.0000000000   -0.1086789507
Zn24      Zn    0.9659900526    0.0340099474    0.4659900526
Zn25      Zn    1.0340099474   -0.0340099474    0.4659900526
Zn26      Zn    1.0340099474    0.0340099474    0.5340099474
Zn27      Zn    0.9659900526   -0.0340099474    0.5340099474
O28        O    1.0000000000    0.0000000000    0.5000000000
O29        O    0.9750051760    0.0249948240    0.4091025613
O30        O    1.0908974387   -0.0249948240    0.4750051760
O31        O    1.0249948240    0.0908974387    0.5249948240
O32        O    1.0249948240   -0.0249948240    0.4091025613
O33        O    0.9750051760    0.0908974387    0.4750051760
O34        O    1.0908974387    0.0249948240    0.5249948240
O35        O    0.9750051760   -0.0249948240    0.5908974387
O36        O    1.0249948240   -0.0908974387    0.4750051760
O37        O    1.0249948240    0.0249948240    0.5908974387
O38        O    0.9750051760   -0.0908974387    0.5249948240
O39        O    0.9091025613   -0.0249948240    0.5249948240
O40        O    0.9091025613    0.0249948240    0.4750051760
C41        C    1.0000000000    0.0000000000    0.3913210493
C42        C    1.1086789507    0.0000000000    0.5000000000
C43        C    1.0000000000    0.1086789507    0.5000000000
C44        C    1.0000000000    0.0000000000    0.6086789507
C45        C    1.0000000000   -0.1086789507    0.5000000000
C46        C    0.8913210493    0.0000000000    0.5000000000
Zn47      Zn    1.0340099474    0.4659900526   -0.0340099474
Zn48      Zn    0.9659900526    0.4659900526    0.0340099474
Zn49      Zn    1.0340099474    0.5340099474    0.0340099474
Zn50      Zn    0.9659900526    0.5340099474   -0.0340099474
O51        O    1.0000000000    0.5000000000    0.0000000000
O52        O    1.0249948240    0.4091025613   -0.0249948240
O53        O    0.9750051760    0.4750051760    0.0908974387
O54        O    1.0908974387    0.5249948240    0.0249948240
O55        O    0.9750051760    0.4091025613    0.0249948240
O56        O    1.0908974387    0.4750051760   -0.0249948240
O57        O    1.0249948240    0.5249948240    0.0908974387
O58        O    0.9750051760    0.5908974387   -0.0249948240
O59        O    0.9091025613    0.4750051760    0.0249948240
O60        O    1.0249948240    0.5908974387    0.0249948240
O61        O    0.9091025613    0.5249948240   -0.0249948240
O62        O    0.9750051760    0.5249948240   -0.0908974387
O63        O    1.0249948240    0.4750051760   -0.0908974387
C64        C    1.0000000000    0.3913210493    0.0000000000
C65        C    1.0000000000    0.5000000000    0.1086789507
C66        C    1.1086789507    0.5000000000    0.0000000000
C67        C    1.0000000000    0.6086789507    0.0000000000
C68        C    0.8913210493    0.5000000000    0.0000000000
C69        C    1.0000000000    0.5000000000   -0.1086789507
Zn70      Zn    1.0340099474    0.5340099474    0.5340099474
Zn71      Zn    1.0340099474    0.4659900526    0.4659900526
Zn72      Zn    0.9659900526    0.4659900526    0.5340099474
Zn73      Zn    0.9659900526    0.5340099474    0.4659900526
O74        O    1.0000000000    0.5000000000    0.5000000000
O75        O    1.0908974387    0.5249948240    0.5249948240
O76        O    1.0249948240    0.4091025613    0.4750051760
O77        O    0.9750051760    0.4750051760    0.5908974387
O78        O    1.0908974387    0.4750051760    0.4750051760
O79        O    1.0249948240    0.5249948240    0.5908974387
O80        O    0.9750051760    0.4091025613    0.5249948240
O81        O    0.9091025613    0.5249948240    0.4750051760
O82        O    1.0249948240    0.4750051760    0.4091025613
O83        O    0.9091025613    0.4750051760    0.5249948240
O84        O    0.9750051760    0.5249948240    0.4091025613
O85        O    0.9750051760    0.5908974387    0.4750051760
O86        O    1.0249948240    0.5908974387    0.5249948240
C87        C    1.1086789507    0.5000000000    0.5000000000
C88        C    1.0000000000    0.3913210493    0.5000000000
C89        C    1.0000000000    0.5000000000    0.6086789507
C90        C    0.8913210493    0.5000000000    0.5000000000
C91        C    1.0000000000    0.5000000000    0.3913210493
C92        C    1.0000000000    0.6086789507    0.5000000000
Zn93      Zn    0.4659900526    0.9659900526   -0.0340099474
Zn94      Zn    0.4659900526    1.0340099474    0.0340099474
Zn95      Zn    0.5340099474    0.9659900526    0.0340099474
Zn96      Zn    0.5340099474    1.0340099474   -0.0340099474
O97        O    0.5000000000    1.0000000000    0.0000000000
O98        O    0.4091025613    0.9750051760   -0.0249948240
O99        O    0.4750051760    1.0249948240    0.0908974387
O100       O    0.5249948240    0.9091025613    0.0249948240
O101       O    0.4091025613    1.0249948240    0.0249948240
O102       O    0.4750051760    0.9091025613   -0.0249948240
O103       O    0.5249948240    0.9750051760    0.0908974387
O104       O    0.5908974387    1.0249948240   -0.0249948240
O105       O    0.4750051760    1.0908974387    0.0249948240
O106       O    0.5908974387    0.9750051760    0.0249948240
O107       O    0.5249948240    1.0908974387   -0.0249948240
O108       O    0.5249948240    1.0249948240   -0.0908974387
O109       O    0.4750051760    0.9750051760   -0.0908974387
C110       C    0.3913210493    1.0000000000    0.0000000000
C111       C    0.5000000000    1.0000000000    0.1086789507
C112       C    0.5000000000    0.8913210493    0.0000000000
C113       C    0.6086789507    1.0000000000    0.0000000000
C114       C    0.5000000000    1.1086789507    0.0000000000
C115       C    0.5000000000    1.0000000000   -0.1086789507
Zn116     Zn    0.4659900526    1.0340099474    0.5340099474
Zn117     Zn    0.4659900526    0.9659900526    0.4659900526
Zn118     Zn    0.5340099474    1.0340099474    0.4659900526
Zn119     Zn    0.5340099474    0.9659900526    0.5340099474
O120       O    0.5000000000    1.0000000000    0.5000000000
O121       O    0.4091025613    1.0249948240    0.5249948240
O122       O    0.4750051760    0.9750051760    0.4091025613
O123       O    0.5249948240    1.0908974387    0.4750051760
O124       O    0.4091025613    0.9750051760    0.4750051760
O125       O    0.4750051760    1.0908974387    0.5249948240
O126       O    0.5249948240    1.0249948240    0.4091025613
O127       O    0.5908974387    0.9750051760    0.5249948240
O128       O    0.4750051760    0.9091025613    0.4750051760
O129       O    0.5908974387    1.0249948240    0.4750051760
O130       O    0.5249948240    0.9091025613    0.5249948240
O131       O    0.5249948240    0.9750051760    0.5908974387
O132       O    0.4750051760    1.0249948240    0.5908974387
C133       C    0.3913210493    1.0000000000    0.5000000000
C134       C    0.5000000000    1.0000000000    0.3913210493
C135       C    0.5000000000    1.1086789507    0.5000000000
C136       C    0.6086789507    1.0000000000    0.5000000000
C137       C    0.5000000000    0.8913210493    0.5000000000
C138       C    0.5000000000    1.0000000000    0.6086789507
Zn139     Zn    0.4659900526    0.5340099474   -0.0340099474
Zn140     Zn    0.4659900526    0.4659900526    0.0340099474
Zn141     Zn    0.5340099474    0.4659900526   -0.0340099474
Zn142     Zn    0.5340099474    0.5340099474    0.0340099474
O143       O    0.5000000000    0.5000000000    0.0000000000
O144       O    0.4091025613    0.5249948240   -0.0249948240
O145       O    0.4750051760    0.4091025613    0.0249948240
O146       O    0.5249948240    0.4750051760   -0.0908974387
O147       O    0.4091025613    0.4750051760    0.0249948240
O148       O    0.4750051760    0.5249948240   -0.0908974387
O149       O    0.5249948240    0.4091025613   -0.0249948240
O150       O    0.5908974387    0.5249948240    0.0249948240
O151       O    0.4750051760    0.4750051760    0.0908974387
O152       O    0.5908974387    0.4750051760   -0.0249948240
O153       O    0.5249948240    0.5249948240    0.0908974387
O154       O    0.5249948240    0.5908974387    0.0249948240
O155       O    0.4750051760    0.5908974387   -0.0249948240
C156       C    0.3913210493    0.5000000000    0.0000000000
C157       C    0.5000000000    0.3913210493    0.0000000000
C158       C    0.5000000000    0.5000000000   -0.1086789507
C159       C    0.6086789507    0.5000000000    0.0000000000
C160       C    0.5000000000    0.5000000000    0.1086789507
C161       C    0.5000000000    0.6086789507    0.0000000000
Zn162     Zn    0.4659900526    0.4659900526    0.4659900526
Zn163     Zn    0.4659900526    0.5340099474    0.5340099474
Zn164     Zn    0.5340099474    0.4659900526    0.5340099474
Zn165     Zn    0.5340099474    0.5340099474    0.4659900526
O166       O    0.5000000000    0.5000000000    0.5000000000
O167       O    0.4091025613    0.4750051760    0.4750051760
O168       O    0.4750051760    0.5249948240    0.5908974387
O169       O    0.5249948240    0.4091025613    0.5249948240
O170       O    0.4091025613    0.5249948240    0.5249948240
O171       O    0.4750051760    0.4091025613    0.4750051760
O172       O    0.5249948240    0.4750051760    0.5908974387
O173       O    0.5908974387    0.5249948240    0.4750051760
O174       O    0.4750051760    0.5908974387    0.5249948240
O175       O    0.5908974387    0.4750051760    0.5249948240
O176       O    0.5249948240    0.5908974387    0.4750051760
O177       O    0.5249948240    0.5249948240    0.4091025613
O178       O    0.4750051760    0.4750051760    0.4091025613
C179       C    0.3913210493    0.5000000000    0.5000000000
C180       C    0.5000000000    0.5000000000    0.6086789507
C181       C    0.5000000000    0.3913210493    0.5000000000
C182       C    0.6086789507    0.5000000000    0.5000000000
C183       C    0.5000000000    0.6086789507    0.5000000000
C184       C    0.5000000000    0.5000000000    0.3913210493
C714       C    0.5000000000    0.5000000000   -0.1553925780
C714       C    0.4634880797    0.4911422799   -0.1387539018
C715       C    0.4588997797    0.4945537266   -0.0976637016
C716       C    0.4908542561    0.5053365095   -0.0732296546
C717       C    0.5270615449    0.5127549642   -0.0912576326
C718       C    0.5314859717    0.5108228756   -0.1317565574
C719       C    0.4867057562    0.5107790790   -0.0270385030
C720       C    0.4191057151    0.4884525273   -0.0807872067
Br714     Br    0.4194006569    0.4738207492   -0.1720775572
H714       H    0.5607059967    0.5188480552   -0.1449768211
H715       H    0.5533306311    0.5220101868   -0.0735142075
C721       C    0.5231310369    0.5060148251    0.0012438606
N714       N    0.5016166341    0.4942181368    0.0377906695
N715       N    0.4657705417    0.4758202430    0.0282931718
N716       N    0.4589872103    0.4808198336   -0.0087137762
C722       C    0.5234693591    0.5049563434   -0.3774347217
H716       H    0.5435646068    0.4815324618   -0.0081865350
H717       H    0.5402623514    0.5342196643    0.0046755895
H718       H    0.4736183854    0.5411125998   -0.0221471045
N717       N    0.3866417697    0.4843107079   -0.0676782438
C715       C    0.5000000000    0.5000000000   -0.3446074220
H719       H    0.4682305366    0.4918349556   -0.3473717450
H720       H    0.5550216927    0.5141502130   -0.3744498340
C691       C    0.5000000000    0.5000000000    0.1553925780
C691       C    0.4634880797    0.5088577201    0.1387539018
C692       C    0.4588997797    0.5054462734    0.0976637016
C693       C    0.4908542561    0.4946634905    0.0732296546
C694       C    0.5270615449    0.4872450358    0.0912576326
C695       C    0.5314859717    0.4891771244    0.1317565574
C696       C    0.4867057562    0.4892209210    0.0270385030
C697       C    0.4191057151    0.5115474727    0.0807872067
Br691     Br    0.4194006569    0.5261792508    0.1720775572
H691       H    0.5607059967    0.4811519448    0.1449768211
H692       H    0.5533306311    0.4779898132    0.0735142075
C698       C    0.5231310369    0.4939851749   -0.0012438606
N691       N    0.5016166341    0.5057818632   -0.0377906695
N692       N    0.4657705417    0.5241797570   -0.0282931718
N693       N    0.4589872103    0.5191801664    0.0087137762
C699       C    0.5234693591    0.4950436566    0.3774347217
H693       H    0.5435646068    0.5184675382    0.0081865350
H694       H    0.5402623514    0.4657803357   -0.0046755895
H695       H    0.4736183854    0.4588874002    0.0221471045
N694       N    0.3866417697    0.5156892921    0.0676782438
C692       C    0.5000000000    0.5000000000    0.3446074220
H696       H    0.4682305366    0.5081650444    0.3473717450
H697       H    0.5550216927    0.4858497870    0.3744498340
C668       C    0.5000000000    0.8446074220    0.5000000000
C668       C    0.4897192989    0.8612460982    0.4638629454
C669       C    0.4929484551    0.9023362984    0.4591445754
C670       C    0.5049742769    0.9267703454    0.4906522980
C671       C    0.5138048875    0.9087423674    0.5265413150
C672       C    0.5120475376    0.8682434426    0.5310380072
C673       C    0.5102502203    0.9729614970    0.4862938537
C674       C    0.4852936346    0.9192127933    0.4196199510
Br668     Br    0.4706846289    0.8279224428    0.4204876343
H668       H    0.5212107924    0.8550231789    0.5599213610
H669       H    0.5240816858    0.9264857925    0.5524278261
C675       C    0.5069160029    1.0012438606    0.5228777598
N668       N    0.4942858776    1.0377906695    0.5018418068
N669       N    0.4744983935    1.0282931718    0.4667436544
N670       N    0.4792285199    0.9912862238    0.4597697462
C676       C    0.5058715815    0.6225652783    0.5232572718
H670       H    0.4832525787    0.9918134650    0.5442543649
H671       H    0.5357700559    1.0046755895    0.5388914574
H672       H    0.5400479848    0.9778528955    0.4720286869
N671       N    0.4798837322    0.9323217562    0.3873430959
C669       C    0.5000000000    0.6553925780    0.5000000000
H673       H    0.4905971538    0.6526282550    0.4685746402
H674       H    0.5162939612    0.6255501660    0.5544253803
C645       C    0.5000000000    1.1553925780    0.5000000000
C645       C    0.5365119203    1.1387539018    0.5088577201
C646       C    0.5411002203    1.0976637016    0.5054462734
C647       C    0.5091457439    1.0732296546    0.4946634905
C648       C    0.4729384551    1.0912576326    0.4872450358
C649       C    0.4685140283    1.1317565574    0.4891771244
C650       C    0.5132942438    1.0270385030    0.4892209210
C651       C    0.5808942849    1.0807872067    0.5115474727
Br645     Br    0.5805993431    1.1720775572    0.5261792508
H645       H    0.4392940033    1.1449768211    0.4811519448
H646       H    0.4466693689    1.0735142075    0.4779898132
C652       C    0.4768689631    0.9987561394    0.4939851749
N645       N    0.4983833659    0.9622093305    0.5057818632
N646       N    0.5342294583    0.9717068282    0.5241797570
N647       N    0.5410127897    1.0087137762    0.5191801664
C653       C    0.4765306409    1.3774347217    0.4950436566
H647       H    0.4564353932    1.0081865350    0.5184675382
H648       H    0.4597376486    0.9953244105    0.4657803357
H649       H    0.5263816146    1.0221471045    0.4588874002
N648       N    0.6133582303    1.0676782438    0.5156892921
C646       C    0.5000000000    1.3446074220    0.5000000000
H650       H    0.5317694634    1.3473717450    0.5081650444
H651       H    0.4449783073    1.3744498340    0.4858497870
C622       C    0.5000000000    0.6553925780    0.0000000000
C622       C    0.5166702528    0.6387539018   -0.0336701976
C623       C    0.5143513357    0.5976637016   -0.0388963902
C624       C    0.4968053775    0.5732296546   -0.0100954124
C625       C    0.4816061486    0.5912576326    0.0235941212
C626       C    0.4825179598    0.6317565574    0.0283351252
C627       C    0.4924083427    0.5270385030   -0.0153392374
C628       C    0.5290543267    0.5807872067   -0.0763745740
Br622     Br    0.5432630574    0.6720775572   -0.0728691646
H622       H    0.4682634344    0.6449768211    0.0550750181
H623       H    0.4668006353    0.5735142075    0.0471848146
C629       C    0.4890456504    0.4987561394    0.0212420624
N622       N    0.5052848074    0.4622093305    0.0028485536
N623       N    0.5311152672    0.4717068282   -0.0280741270
N624       N    0.5277297955    0.5087137762   -0.0357908668
C630       C    0.4900038197    0.8774347217    0.0218048742
H624       H    0.5084351193    0.5081865350    0.0465593567
H625       H    0.4577639038    0.4953244105    0.0317514494
H626       H    0.4656954436    0.5221471045   -0.0347769012
N625       N    0.5402339304    0.5676782438   -0.1071329693
C623       C    0.5000000000    0.8446074220    0.0000000000
H627       H    0.5149516157    0.8473717450   -0.0291961631
H628       H    0.4740963137    0.8744498340    0.0505629729
C599       C    0.5000000000    1.1553925780    0.0000000000
C599       C    0.4752082515    1.1387539018    0.0282302805
C600       C    0.4761005122    1.0976637016    0.0338777875
C601       C    0.5004822425    1.0732296546    0.0105778262
C602       C    0.5238577428    1.0912576326   -0.0180506076
C603       C    0.5241998023    1.1317565574   -0.0228663644
C604       C    0.5033777374    1.0270385030    0.0167784491
C605       C    0.4522271177    1.0807872067    0.0662946542
Br599     Br    0.4394035600    1.1720775572    0.0592425417
H599       H    0.5448698137    1.1449768211   -0.0450240717
H600       H    0.5442477125    1.0735142075   -0.0370235665
C606       C    0.5160632878    0.9987561394   -0.0176972815
N599       N    0.4956288851    0.9622093305   -0.0041154345
N600       N    0.4626957232    0.9717068282    0.0190973137
N601       N    0.4639759681    1.0087137762    0.0274262070
C607       C    0.5152827337    1.3774347217   -0.0184882182
H601       H    0.5038610250    1.0081865350   -0.0471594892
H602       H    0.5489973332    0.9953244105   -0.0197813979
H603       H    0.5241722997    1.0221471045    0.0424492093
N602       N    0.4334913253    1.0676782438    0.0931280756
C600       C    0.5000000000    1.3446074220    0.0000000000
H604       H    0.4780228616    1.3473717450    0.0243510193
H605       H    0.5380704048    1.3744498340   -0.0421694140
C576       C    0.5000000000    1.0000000000   -0.1553925780
C576       C    0.4634880797    0.9911422799   -0.1387539018
C577       C    0.4588997797    0.9945537266   -0.0976637016
C578       C    0.4908542561    1.0053365095   -0.0732296546
C579       C    0.5270615449    1.0127549642   -0.0912576326
C580       C    0.5314859717    1.0108228756   -0.1317565574
C581       C    0.4867057562    1.0107790790   -0.0270385030
C582       C    0.4191057151    0.9884525273   -0.0807872067
Br576     Br    0.4194006569    0.9738207492   -0.1720775572
H576       H    0.5607059967    1.0188480552   -0.1449768211
H577       H    0.5533306311    1.0220101868   -0.0735142075
C583       C    0.5231310369    1.0060148251    0.0012438606
N576       N    0.5016166341    0.9942181368    0.0377906695
N577       N    0.4657705417    0.9758202430    0.0282931718
N578       N    0.4589872103    0.9808198336   -0.0087137762
C584       C    0.5234693591    1.0049563434   -0.3774347217
H578       H    0.5435646068    0.9815324618   -0.0081865350
H579       H    0.5402623514    1.0342196643    0.0046755895
H580       H    0.4736183854    1.0411125998   -0.0221471045
N579       N    0.3866417697    0.9843107079   -0.0676782438
C577       C    0.5000000000    1.0000000000   -0.3446074220
H581       H    0.4682305366    0.9918349556   -0.3473717450
H582       H    0.5550216927    1.0141502130   -0.3744498340
C553       C    0.5000000000    1.0000000000    0.3446074220
C553       C    0.5365119203    1.0088577201    0.3612460982
C554       C    0.5411002203    1.0054462734    0.4023362984
C555       C    0.5091457439    0.9946634905    0.4267703454
C556       C    0.4729384551    0.9872450358    0.4087423674
C557       C    0.4685140283    0.9891771244    0.3682434426
C558       C    0.5132942438    0.9892209210    0.4729614970
C559       C    0.5808942849    1.0115474727    0.4192127933
Br553     Br    0.5805993431    1.0261792508    0.3279224428
H553       H    0.4392940033    0.9811519448    0.3550231789
H554       H    0.4466693689    0.9779898132    0.4264857925
C560       C    0.4768689631    0.9939851749    0.5012438606
N553       N    0.4983833659    1.0057818632    0.5377906695
N554       N    0.5342294583    1.0241797570    0.5282931718
N555       N    0.5410127897    1.0191801664    0.4912862238
C561       C    0.4765306409    0.9950436566    0.1225652783
H555       H    0.4564353932    1.0184675382    0.4918134650
H556       H    0.4597376486    0.9657803357    0.5046755895
H557       H    0.5263816146    0.9588874002    0.4778528955
N556       N    0.6133582303    1.0156892921    0.4323217562
C554       C    0.5000000000    1.0000000000    0.1553925780
H558       H    0.5317694634    1.0081650444    0.1526282550
H559       H    0.4449783073    0.9858497870    0.1255501660
C530       C    0.8446074220    0.5000000000    0.5000000000
C530       C    0.8612460982    0.5365133815    0.4911483051
C531       C    0.9023362984    0.5390292507    0.4860140215
C532       C    0.9267703454    0.5056851943    0.4910668298
C533       C    0.9087423674    0.4701019030    0.5010583569
C534       C    0.8682434426    0.4670540366    0.5048025563
C535       C    0.9729614970    0.5068797019    0.4843285238
C536       C    0.9192127933    0.5771974549    0.4732085386
Br530     Br    0.8279224428    0.5836378169    0.4863499867
H530       H    0.8550231789    0.4374038683    0.5110540269
H531       H    0.9264857925    0.4425113957    0.5048646605
C537       C    1.0012438606    0.4766833021    0.5052492463
N530       N    1.0377906695    0.5012115184    0.5058801080
N531       N    1.0282931718    0.5415032102    0.5058137766
N532       N    0.9912862238    0.5452427675    0.4982622732
C538       C    0.6225652783    0.4768674342    0.5063451207
H532       H    0.9918134650    0.4697345919    0.5363721048
H533       H    1.0046755895    0.4485349976    0.4880251980
H534       H    0.9778528955    0.5046179949    0.4513696641
N533       N    0.9323217562    0.6079522848    0.4620191302
C531       C    0.6553925780    0.5000000000    0.5000000000
H535       H    0.6526282550    0.5319804602    0.4927050075
H536       H    0.6255501660    0.4446086977    0.5126261166
C507       C    1.1553925780    0.5000000000    0.5000000000
C507       C    1.1387539018    0.4710106152    0.5238996882
C508       C    1.0976637016    0.4653936668    0.5228318134
C509       C    1.0732296546    0.4894423472    0.4991882533
C510       C    1.0912576326    0.5187855437    0.4767165365
C511       C    1.1317565574    0.5236096231    0.4765247630
C512       C    1.0270385030    0.4833349979    0.4961008758
C513       C    1.0807872067    0.4322483579    0.5456830871
Br507     Br    1.1720775572    0.4388972992    0.5587202456
H507       H    1.1449768211    0.5464009006    0.4565555108
H508       H    1.0735142075    0.5383848909    0.4569279129
C514       C    0.9987561394    0.5181894158    0.4844961894
N507       N    0.9622093305    0.5039771754    0.5044972795
N508       N    0.9717068282    0.4797490951    0.5366908342
N509       N    1.0087137762    0.4714641581    0.5351515779
C515       C    1.3774347217    0.5189556361    0.4853010198
H509       H    1.0081865350    0.5472569287    0.4976109364
H510       H    0.9953244105    0.5212991599    0.4516431168
H511       H    1.0221471045    0.4583249343    0.4745161944
N510       N    1.0676782438    0.4048439333    0.5635733060
C508       C    1.3446074220    0.5000000000    0.5000000000
H512       H    1.3473717450    0.4749757299    0.5212073727
H513       H    1.3744498340    0.5433356747    0.4632626281
C484       C    0.6553925780    0.5000000000    0.0000000000
C484       C    0.6387539018    0.5229759158    0.0297268704
C485       C    0.5976637016    0.5217318724    0.0353074458
C486       C    0.5732296546    0.4988565339    0.0105268917
C487       C    0.5912576326    0.4773190130   -0.0195086942
C488       C    0.6317565574    0.4772790896   -0.0243364189
C489       C    0.5270385030    0.4955785603    0.0165340961
C490       C    0.5807872067    0.5435291560    0.0691552025
Br484     Br    0.6720775572    0.5567690235    0.0629196730
H484       H    0.6449768211    0.4580366853   -0.0477446064
H485       H    0.5735142075    0.4581567366   -0.0397208491
C491       C    0.4987561394    0.4850760627   -0.0186681301
N484       N    0.4622093305    0.5046201672   -0.0038337322
N485       N    0.4717068282    0.5360356250    0.0213950974
N486       N    0.5087137762    0.5342365042    0.0296275123
C492       C    0.8774347217    0.4859045983   -0.0194086530
H486       H    0.5081865350    0.4990987206   -0.0473086951
H487       H    0.4953244105    0.4523370756   -0.0228098225
H488       H    0.5221471045    0.4732177985    0.0408527739
N487       N    0.5676782438    0.5605484361    0.0971088521
C485       C    0.8446074220    0.5000000000    0.0000000000
H489       H    0.8473717450    0.5204096668    0.0256790236
H490       H    0.8744498340    0.4646440577   -0.0444699060
C461       C    1.1553925780    0.5000000000    0.0000000000
C461       C    1.1387539018    0.5143238259   -0.0347333779
C462       C    1.0976637016    0.5197820878   -0.0364356831
C463       C    1.0732296546    0.5096965787   -0.0042543302
C464       C    1.0912576326    0.4943883235    0.0293858029
C465       C    1.1317565574    0.4902226004    0.0318261451
C466       C    1.0270385030    0.5165382646   -0.0044058221
C467       C    1.0807872067    0.5382660357   -0.0722006923
Br461     Br    1.1720775572    0.5262622292   -0.0805723439
H461       H    1.1449768211    0.4795165810    0.0601738877
H462       H    1.0735142075    0.4864133224    0.0560714431
C468       C    0.9987561394    0.4912516330    0.0222416066
N461       N    0.9622093305    0.4943738701   -0.0020952588
N462       N    0.9717068282    0.5005923605   -0.0419042428
N463       N    1.0087137762    0.5086263600   -0.0444467504
C469       C    1.3774347217    0.4901967308    0.0218922834
H463       H    1.0081865350    0.4594326760    0.0243560498
H464       H    0.9953244105    0.5039751392    0.0526900430
H465       H    1.0221471045    0.5487651674    0.0028624991
N464       N    1.0676782438    0.5540207688   -0.1008860685
C462       C    1.3446074220    0.5000000000    0.0000000000
H466       H    1.3473717450    0.5120931604   -0.0304913467
H467       H    1.3744498340    0.4790631784    0.0528134897
C438       C    1.0000000000    0.5000000000   -0.1553925780
C438       C    0.9634880797    0.4911422799   -0.1387539018
C439       C    0.9588997797    0.4945537266   -0.0976637016
C440       C    0.9908542561    0.5053365095   -0.0732296546
C441       C    1.0270615449    0.5127549642   -0.0912576326
C442       C    1.0314859717    0.5108228756   -0.1317565574
C443       C    0.9867057562    0.5107790790   -0.0270385030
C444       C    0.9191057151    0.4884525273   -0.0807872067
Br438     Br    0.9194006569    0.4738207492   -0.1720775572
H438       H    1.0607059967    0.5188480552   -0.1449768211
H439       H    1.0533306311    0.5220101868   -0.0735142075
C445       C    1.0231310369    0.5060148251    0.0012438606
N438       N    1.0016166341    0.4942181368    0.0377906695
N439       N    0.9657705417    0.4758202430    0.0282931718
N440       N    0.9589872103    0.4808198336   -0.0087137762
C446       C    1.0234693591    0.5049563434   -0.3774347217
H440       H    1.0435646068    0.4815324618   -0.0081865350
H441       H    1.0402623514    0.5342196643    0.0046755895
H442       H    0.9736183854    0.5411125998   -0.0221471045
N441       N    0.8866417697    0.4843107079   -0.0676782438
C439       C    1.0000000000    0.5000000000   -0.3446074220
H443       H    0.9682305366    0.4918349556   -0.3473717450
H444       H    1.0550216927    0.5141502130   -0.3744498340
C415       C    1.0000000000    0.5000000000    0.1553925780
C415       C    0.9634858311    0.5088484462    0.1387539018
C416       C    0.9588983977    0.5054358342    0.0976637016
C417       C    0.9908556118    0.4946611678    0.0732296546
C418       C    1.0270647836    0.4872519096    0.0912576326
C419       C    1.0314887196    0.4891851218    0.1317565574
C420       C    0.9867084943    0.4892175447    0.0270385030
C421       C    0.9191027848    0.5115269261    0.0807872067
Br415     Br    0.9193940102    0.5261587787    0.1720775572
H415       H    1.0607107819    0.4811673641    0.1449768211
H416       H    1.0533362198    0.4780033593    0.0735142075
C422       C    1.0231325638    0.4939910501   -0.0012438606
N415       N    1.0016151655    0.5057822736   -0.0377906695
N416       N    0.9657644015    0.5241710623   -0.0282931718
N417       N    0.9589823400    0.5191697490    0.0087137762
C423       C    1.0234706172    0.4950496177    0.3774347217
H417       H    1.0435599149    0.5184786025    0.0081865350
H418       H    1.0402710415    0.4657905630   -0.0046755895
H419       H    0.9736288284    0.4588807009    0.0221471045
N418       N    0.8866377884    0.5156604999    0.0676782438
C416       C    1.0000000000    0.5000000000    0.3446074220
H420       H    0.9682284638    0.5081569750    0.3473717450
H421       H    1.0550252849    0.4858637623    0.3744498340
C392       C    1.0000000000   -0.3446074220    0.5000000000
C392       C    1.0365119203   -0.3612460982    0.5088577201
C393       C    1.0411002203   -0.4023362984    0.5054462734
C394       C    1.0091457439   -0.4267703454    0.4946634905
C395       C    0.9729384551   -0.4087423674    0.4872450358
C396       C    0.9685140283   -0.3682434426    0.4891771244
C397       C    1.0132942438   -0.4729614970    0.4892209210
C398       C    1.0808942849   -0.4192127933    0.5115474727
Br392     Br    1.0805993431   -0.3279224428    0.5261792508
H392       H    0.9392940033   -0.3550231789    0.4811519448
H393       H    0.9466693689   -0.4264857925    0.4779898132
C399       C    0.9768689631   -0.5012438606    0.4939851749
N392       N    0.9983833659   -0.5377906695    0.5057818632
N393       N    1.0342294583   -0.5282931718    0.5241797570
N394       N    1.0410127897   -0.4912862238    0.5191801664
C400       C    0.9765306409   -0.1225652783    0.4950436566
H394       H    0.9564353932   -0.4918134650    0.5184675382
H395       H    0.9597376486   -0.5046755895    0.4657803357
H396       H    1.0263816146   -0.4778528955    0.4588874002
N395       N    1.1133582303   -0.4323217562    0.5156892921
C393       C    1.0000000000   -0.1553925780    0.5000000000
H397       H    1.0317694634   -0.1526282550    0.5081650444
H398       H    0.9449783073   -0.1255501660    0.4858497870
C369       C    1.0000000000    0.1553925780    0.5000000000
C369       C    1.0365119203    0.1387539018    0.5088577201
C370       C    1.0411002203    0.0976637016    0.5054462734
C371       C    1.0091457439    0.0732296546    0.4946634905
C372       C    0.9729384551    0.0912576326    0.4872450358
C373       C    0.9685140283    0.1317565574    0.4891771244
C374       C    1.0132942438    0.0270385030    0.4892209210
C375       C    1.0808942849    0.0807872067    0.5115474727
Br369     Br    1.0805993431    0.1720775572    0.5261792508
H369       H    0.9392940033    0.1449768211    0.4811519448
H370       H    0.9466693689    0.0735142075    0.4779898132
C376       C    0.9768689631   -0.0012438606    0.4939851749
N369       N    0.9983833659   -0.0377906695    0.5057818632
N370       N    1.0342294583   -0.0282931718    0.5241797570
N371       N    1.0410127897    0.0087137762    0.5191801664
C377       C    0.9765306409    0.3774347217    0.4950436566
H371       H    0.9564353932    0.0081865350    0.5184675382
H372       H    0.9597376486   -0.0046755895    0.4657803357
H373       H    1.0263816146    0.0221471045    0.4588874002
N372       N    1.1133582303    0.0676782438    0.5156892921
C370       C    1.0000000000    0.3446074220    0.5000000000
H374       H    1.0317694634    0.3473717450    0.5081650444
H375       H    0.9449783073    0.3744498340    0.4858497870
C346       C    0.6553925780   -0.0000000000    0.5000000000
C346       C    0.6387539018    0.0261543050    0.5269727985
C347       C    0.5976637016    0.0255417515    0.5326574483
C348       C    0.5732296546    0.0000402037    0.5105887369
C349       C    0.5912576326   -0.0247192206    0.4831483990
C350       C    0.6317565574   -0.0252984498    0.4783553820
C351       C    0.5270385030   -0.0025458565    0.5169246589
C352       C    0.5807872067    0.0509853668    0.5638570421
Br346     Br    0.6720775572    0.0634453917    0.5561808646
H346       H    0.6449768211   -0.0470364454    0.4572444153
H347       H    0.5735142075   -0.0460203954    0.4652044867
C353       C    0.4987561394   -0.0169168257    0.4831167540
N346       N    0.4622093305    0.0041627565    0.4956739272
N347       N    0.4717068282    0.0382010200    0.5172336453
N348       N    0.5087137762    0.0373332415    0.5256155575
C354       C    0.8774347217   -0.0161762431    0.4822882717
H348       H    0.5081865350   -0.0061829452    0.4530884223
H349       H    0.4953244105   -0.0499135869    0.4826599825
H350       H    0.5221471045   -0.0220486253    0.5435900627
N349       N    0.5676782438    0.0710221759    0.5897334542
C347       C    0.8446074220   -0.0000000000    0.5000000000
H351       H    0.8473717450    0.0231517383    0.5232371205
H352       H    0.8744498340   -0.0401044812    0.4597601469
C323       C    1.1553925780   -0.0000000000    0.5000000000
C323       C    1.1387539018    0.0290346436    0.5238446850
C324       C    1.0976637016    0.0290683624    0.5295621432
C325       C    1.0732296546    0.0012364430    0.5105163764
C326       C    1.0912576326   -0.0264650842    0.4860495291
C327       C    1.1317565574   -0.0275822008    0.4813526610
C328       C    1.0270385030   -0.0006171133    0.5171039363
C329       C    1.0807872067    0.0578744837    0.5576868581
Br323     Br    1.1720775572    0.0693873201    0.5486518971
H323       H    1.1449768211   -0.0515664499    0.4628332344
H324       H    1.0735142075   -0.0496574422    0.4706275133
C330       C    0.9987561394   -0.0187162370    0.4851364385
N323       N    0.9622093305    0.0036472615    0.4952312548
N324       N    0.9717068282    0.0399037068    0.5128066639
N325       N    1.0087137762    0.0399886182    0.5212329490
C331       C    1.3774347217   -0.0180740137    0.4842295787
H325       H    1.0081865350   -0.0114442188    0.4540875312
H326       H    0.9953244105   -0.0515532782    0.4884111316
H327       H    1.0221471045   -0.0169818591    0.5458023134
N326       N    1.0676782438    0.0807069234    0.5811334381
C324       C    1.3446074220   -0.0000000000    0.5000000000
H328       H    1.3473717450    0.0256291865    0.5204722142
H329       H    1.3744498340   -0.0443946123    0.4645495615
C300       C   -0.0000000000   -0.3446074220    0.0000000000
C300       C    0.0224238083   -0.3612460982    0.0301455196
C301       C    0.0281330605   -0.4023362984    0.0304535862
C302       C    0.0104449210   -0.4267703454    0.0017397099
C303       C   -0.0126643104   -0.4087423674   -0.0271040876
C304       C   -0.0173021550   -0.3682434426   -0.0284453245
C305       C    0.0171138444   -0.4729614970    0.0002044330
C306       C    0.0548429340   -0.4192127933    0.0605762498
Br300     Br    0.0452658707   -0.3279224428    0.0716422238
H300       H   -0.0346492145   -0.3550231789   -0.0532907042
H301       H   -0.0269555316   -0.4264857925   -0.0510098408
C307       C   -0.0139482240   -0.5012438606   -0.0194079890
N300       N   -0.0049382863   -0.5377906695    0.0034142021
N301       N    0.0108768881   -0.5282931718    0.0404723333
N302       N    0.0192893893   -0.4912862238    0.0409615328
C308       C   -0.0148848598   -0.1225652783   -0.0188100268
H302       H   -0.0453103473   -0.4918134650   -0.0136344184
H303       H   -0.0091014210   -0.5046755895   -0.0520500384
H304       H    0.0465645151   -0.4778528955   -0.0147641924
N303       N    0.0771667462   -0.4323217562    0.0845076065
C301       C   -0.0000000000   -0.1553925780   -0.0000000000
H305       H    0.0192186547   -0.1526282550    0.0265821381
H306       H   -0.0332790488   -0.1255501660   -0.0460447620
C277       C    0.0000000000    0.3446074220    0.0000000000
C277       C    0.0124290424    0.3612460982    0.0354555840
C278       C    0.0094886179    0.4023362984    0.0403590898
C279       C   -0.0044048224    0.4267703454    0.0096291487
C280       C   -0.0153715106    0.4087423674   -0.0256657940
C281       C   -0.0138869521    0.3682434426   -0.0302597689
C282       C   -0.0094099329    0.4729614970    0.0142961053
C283       C    0.0194996289    0.4192127933    0.0793536006
Br277     Br    0.0340303206    0.3279224428    0.0776114976
H277       H   -0.0247656146    0.3550231789   -0.0585417078
H278       H   -0.0271820171    0.4264857925   -0.0508895125
C284       C   -0.0082753484    0.5012438606   -0.0224218999
N277       N    0.0055934030    0.5377906695   -0.0021811213
N278       N    0.0274498282    0.5282931718    0.0316673868
N279       N    0.0231463803    0.4912862238    0.0389123732
C285       C   -0.0072555624    0.1225652783   -0.0228633544
H279       H    0.0140637200    0.4918134650   -0.0451789411
H280       H   -0.0380376923    0.5046755895   -0.0366766454
H281       H   -0.0382987179    0.4778528955    0.0303223293
N280       N    0.0268351726    0.4323217562    0.1112479923
C278       C    0.0000000000    0.1553925780    0.0000000000
H282       H    0.0112702457    0.1526282550    0.0308050047
H283       H   -0.0195280819    0.1255501660   -0.0533504378
C254       C   -0.1553925780   -0.0000000000    0.0000000000
C254       C   -0.1387539018    0.0348187836   -0.0141149509
C255       C   -0.0976637016    0.0365538417   -0.0195628899
C256       C   -0.0732296546    0.0043124934   -0.0096708513
C257       C   -0.0912576326   -0.0294189778    0.0054350774
C258       C   -0.1317565574   -0.0318842963    0.0095860681
C259       C   -0.0270385030    0.0045050752   -0.0165115039
C260       C   -0.0807872067    0.0724292245   -0.0378316916
Br254     Br   -0.1720775572    0.0807286276   -0.0257778195
H254       H   -0.1449768211   -0.0602958305    0.0201216314
H255       H   -0.0735142075   -0.0561520364    0.0132496546
C261       C    0.0012438606   -0.0222937501    0.0086146210
N254       N    0.0377906695    0.0020614292    0.0056386130
N255       N    0.0282931718    0.0419070448   -0.0003406633
N256       N   -0.0087137762    0.0444977606   -0.0083592470
C262       C   -0.3774347217   -0.0219507692    0.0096716023
H256       H   -0.0081865350   -0.0245992671    0.0404203042
H257       H    0.0046755895   -0.0526652170   -0.0042915360
H258       H   -0.0221471045   -0.0025695526   -0.0487814806
N257       N   -0.0676782438    0.1012087099   -0.0534138495
C255       C   -0.3446074220   -0.0000000000    0.0000000000
H259       H   -0.3473717450    0.0305634310   -0.0119098042
H260       H   -0.3744498340   -0.0529382885    0.0206192340
C231       C    0.1553925780   -0.0000000000    0.0000000000
C231       C    0.1387539018    0.0326510295   -0.0185873560
C232       C    0.0976637016    0.0380024465   -0.0165741988
C233       C    0.0732296546    0.0102630909    0.0026061329
C234       C    0.0912576326   -0.0224922151    0.0197260382
C235       C    0.1317565574   -0.0272779731    0.0190896107
C236       C    0.0270385030    0.0157521521    0.0066929194
C237       C    0.0807872067    0.0745687415   -0.0334175439
Br231     Br    0.1720775572    0.0702484266   -0.0474000616
H231       H    0.1449768211   -0.0531498129    0.0348649482
H232       H    0.0735142075   -0.0451882863    0.0358695320
C238       C   -0.0012438606   -0.0205738219    0.0121630933
N231       N   -0.0377906695   -0.0031490709   -0.0051114381
N232       N   -0.0282931718    0.0262298956   -0.0326849971
N233       N    0.0087137762    0.0341293100   -0.0297509311
C239       C    0.3774347217   -0.0211910421    0.0112390344
H233       H    0.0081865350   -0.0469688635   -0.0057315618
H234       H   -0.0046755895   -0.0292586898    0.0439996754
H235       H    0.0221471045    0.0367004141    0.0322384096
N234       N    0.0676782438    0.1046299948   -0.0463552203
C232       C    0.3446074220   -0.0000000000    0.0000000000
H236       H    0.3473717450    0.0282837417   -0.0166131487
H237       H    0.3744498340   -0.0489822344    0.0287811729
C208       C   -0.0000000000    0.0000000000   -0.3446074220
C208       C   -0.0364792334    0.0089913881   -0.3612460982
C209       C   -0.0410799973    0.0055967692   -0.4023362984
C210       C   -0.0091652279   -0.0053029768   -0.4267703454
C211       C    0.0270146475   -0.0128539934   -0.4087423674
C212       C    0.0314461210   -0.0109381226   -0.3682434426
C213       C   -0.0133336338   -0.0107303157   -0.4729614970
C214       C   -0.0808514489    0.0118436760   -0.4192127933
Br208     Br   -0.0805029192    0.0264742758   -0.3279224428
H208       H    0.0606365573   -0.0190702686   -0.3550231789
H209       H    0.0532496596   -0.0222053663   -0.4264857925
C215       C    0.0231088520   -0.0060995038   -0.5012438606
N208       N    0.0016377997    0.0057759033   -0.5377906695
N209       N   -0.0341406687    0.0243049625   -0.5282931718
N210       N   -0.0409422660    0.0193302499   -0.4912862238
C216       C    0.0234510488   -0.0050422683   -0.1225652783
H210       H    0.0436319532    0.0183078560   -0.4918134650
H211       H    0.0401367495   -0.0343668983   -0.5046755895
H212       H   -0.0265320153   -0.0410156996   -0.4778528955
N211       N   -0.1133000069    0.0161043691   -0.4323217562
C209       C   -0.0000000000   -0.0000000000   -0.1553925780
H213       H   -0.0317393453    0.0082813474   -0.1526282550
H214       H    0.0549694975   -0.0143516388   -0.1255501660
C185       C    0.0000000000    0.0000000000    0.1553925780
C185       C   -0.0079522462   -0.0367197673    0.1387539018
C186       C   -0.0044283957   -0.0412223157    0.0976637016
C187       C    0.0055610087   -0.0090110014    0.0732296546
C188       C    0.0120819617    0.0273686413    0.0912576326
C189       C    0.0100410688    0.0317439442    0.1317565574
C190       C    0.0111044870   -0.0130236643    0.0270385030
C191       C   -0.0095438120   -0.0811550683    0.0807872067
Br185     Br   -0.0241784095   -0.0812219909    0.1720775572
H185       H    0.0173413228    0.0611534606    0.1449768211
H186       H    0.0206848454    0.0538585342    0.0735142075
C192       C    0.0054410659    0.0232726833   -0.0012438606
N185       N   -0.0058200672    0.0014731819   -0.0377906695
N186       N   -0.0233260333   -0.0348168440   -0.0282931718
N187       N   -0.0181602518   -0.0414744857    0.0087137762
C193       C    0.0043745427    0.0235847310    0.3774347217
H187       H   -0.0195390377    0.0430946742    0.0081865350
H188       H    0.0332137066    0.0410961319   -0.0046755895
H189       H    0.0417523227   -0.0253570305    0.0221471045
N188       N   -0.0128816864   -0.1137114965    0.0676782438
C186       C    0.0000000000    0.0000000000    0.3446074220
H190       H   -0.0073770406   -0.0319616336    0.3473717450
H191       H    0.0127854627    0.0553547391    0.3744498340
loop_
_geom_bond_atom_site_label_1
_geom_bond_atom_site_label_2
_geom_bond_distance
_geom_bond_site_symmetry_2
_ccdc_geom_bond_type
Zn1          O5 1.942       .   S
Zn1          O6 1.922       .   S
Zn1         O10 1.922       .   S
Zn1         O17 1.922       .   S
Zn2          O5 1.942       .   S
Zn2          O7 1.922       .   S
Zn2          O9 1.922       .   S
Zn2         O13 1.922       .   S
Zn3          O5 1.942       .   S
Zn3          O8 1.922       .   S
Zn3         O11 1.922       .   S
Zn3         O14 1.922       .   S
Zn4          O5 1.942       .   S
Zn4         O12 1.922       .   S
Zn4         O15 1.922       .   S
Zn4         O16 1.922       .   S
O6          C18 1.304       .   A
O7          C19 1.304       .   A
O8          C20 1.304       .   A
O9          C18 1.304       .   A
O10         C20 1.304       .   A
O11         C19 1.304       .   A
O12         C21 1.304       .   A
O13         C22 1.304       .   A
O14         C21 1.304       .   A
O15         C22 1.304       .   A
O16         C23 1.304       .   A
O17         C23 1.304       .   A
Zn24        O28 1.942       .   S
Zn24        O29 1.922       .   S
Zn24        O33 1.922       .   S
Zn24        O40 1.922       .   S
Zn25        O28 1.942       .   S
Zn25        O30 1.922       .   S
Zn25        O32 1.922       .   S
Zn25        O36 1.922       .   S
Zn26        O28 1.942       .   S
Zn26        O31 1.922       .   S
Zn26        O34 1.922       .   S
Zn26        O37 1.922       .   S
Zn27        O28 1.942       .   S
Zn27        O35 1.922       .   S
Zn27        O38 1.922       .   S
Zn27        O39 1.922       .   S
O29         C41 1.304       .   A
O30         C42 1.304       .   A
O31         C43 1.304       .   A
O32         C41 1.304       .   A
O33         C43 1.304       .   A
O34         C42 1.304       .   A
O35         C44 1.304       .   A
O36         C45 1.304       .   A
O37         C44 1.304       .   A
O38         C45 1.304       .   A
O39         C46 1.304       .   A
O40         C46 1.304       .   A
Zn47        O51 1.942       .   S
Zn47        O52 1.922       .   S
Zn47        O56 1.922       .   S
Zn47        O63 1.922       .   S
Zn48        O51 1.942       .   S
Zn48        O53 1.922       .   S
Zn48        O55 1.922       .   S
Zn48        O59 1.922       .   S
Zn49        O51 1.942       .   S
Zn49        O54 1.922       .   S
Zn49        O57 1.922       .   S
Zn49        O60 1.922       .   S
Zn50        O51 1.942       .   S
Zn50        O58 1.922       .   S
Zn50        O61 1.922       .   S
Zn50        O62 1.922       .   S
O52         C64 1.304       .   A
O53         C65 1.304       .   A
O54         C66 1.304       .   A
O55         C64 1.304       .   A
O56         C66 1.304       .   A
O57         C65 1.304       .   A
O58         C67 1.304       .   A
O59         C68 1.304       .   A
O60         C67 1.304       .   A
O61         C68 1.304       .   A
O62         C69 1.304       .   A
O63         C69 1.304       .   A
Zn70        O74 1.942       .   S
Zn70        O75 1.922       .   S
Zn70        O79 1.922       .   S
Zn70        O86 1.922       .   S
Zn71        O74 1.942       .   S
Zn71        O76 1.922       .   S
Zn71        O78 1.922       .   S
Zn71        O82 1.922       .   S
Zn72        O74 1.942       .   S
Zn72        O77 1.922       .   S
Zn72        O80 1.922       .   S
Zn72        O83 1.922       .   S
Zn73        O74 1.942       .   S
Zn73        O81 1.922       .   S
Zn73        O84 1.922       .   S
Zn73        O85 1.922       .   S
O75         C87 1.304       .   A
O76         C88 1.304       .   A
O77         C89 1.304       .   A
O78         C87 1.304       .   A
O79         C89 1.304       .   A
O80         C88 1.304       .   A
O81         C90 1.304       .   A
O82         C91 1.304       .   A
O83         C90 1.304       .   A
O84         C91 1.304       .   A
O85         C92 1.304       .   A
O86         C92 1.304       .   A
Zn93        O97 1.942       .   S
Zn93        O98 1.922       .   S
Zn93       O102 1.922       .   S
Zn93       O109 1.922       .   S
Zn94        O97 1.942       .   S
Zn94        O99 1.922       .   S
Zn94       O101 1.922       .   S
Zn94       O105 1.922       .   S
Zn95        O97 1.942       .   S
Zn95       O100 1.922       .   S
Zn95       O103 1.922       .   S
Zn95       O106 1.922       .   S
Zn96        O97 1.942       .   S
Zn96       O104 1.922       .   S
Zn96       O107 1.922       .   S
Zn96       O108 1.922       .   S
O98        C110 1.304       .   A
O99        C111 1.304       .   A
O100       C112 1.304       .   A
O101       C110 1.304       .   A
O102       C112 1.304       .   A
O103       C111 1.304       .   A
O104       C113 1.304       .   A
O105       C114 1.304       .   A
O106       C113 1.304       .   A
O107       C114 1.304       .   A
O108       C115 1.304       .   A
O109       C115 1.304       .   A
Zn116      O120 1.942       .   S
Zn116      O121 1.922       .   S
Zn116      O125 1.922       .   S
Zn116      O132 1.922       .   S
Zn117      O120 1.942       .   S
Zn117      O122 1.922       .   S
Zn117      O124 1.922       .   S
Zn117      O128 1.922       .   S
Zn118      O120 1.942       .   S
Zn118      O123 1.922       .   S
Zn118      O126 1.922       .   S
Zn118      O129 1.922       .   S
Zn119      O120 1.942       .   S
Zn119      O127 1.922       .   S
Zn119      O130 1.922       .   S
Zn119      O131 1.922       .   S
O121       C133 1.304       .   A
O122       C134 1.304       .   A
O123       C135 1.304       .   A
O124       C133 1.304       .   A
O125       C135 1.304       .   A
O126       C134 1.304       .   A
O127       C136 1.304       .   A
O128       C137 1.304       .   A
O129       C136 1.304       .   A
O130       C137 1.304       .   A
O131       C138 1.304       .   A
O132       C138 1.304       .   A
Zn139      O143 1.942       .   S
Zn139      O144 1.922       .   S
Zn139      O148 1.922       .   S
Zn139      O155 1.922       .   S
Zn140      O143 1.942       .   S
Zn140      O145 1.922       .   S
Zn140      O147 1.922       .   S
Zn140      O151 1.922       .   S
Zn141      O143 1.942       .   S
Zn141      O146 1.922       .   S
Zn141      O149 1.922       .   S
Zn141      O152 1.922       .   S
Zn142      O143 1.942       .   S
Zn142      O150 1.922       .   S
Zn142      O153 1.922       .   S
Zn142      O154 1.922       .   S
O144       C156 1.304       .   A
O145       C157 1.304       .   A
O146       C158 1.304       .   A
O147       C156 1.304       .   A
O148       C158 1.304       .   A
O149       C157 1.304       .   A
O150       C159 1.304       .   A
O151       C160 1.304       .   A
O152       C159 1.304       .   A
O153       C160 1.304       .   A
O154       C161 1.304       .   A
O155       C161 1.304       .   A
Zn162      O166 1.942       .   S
Zn162      O167 1.922       .   S
Zn162      O171 1.922       .   S
Zn162      O178 1.922       .   S
Zn163      O166 1.942       .   S
Zn163      O168 1.922       .   S
Zn163      O170 1.922       .   S
Zn163      O174 1.922       .   S
Zn164      O166 1.942       .   S
Zn164      O169 1.922       .   S
Zn164      O172 1.922       .   S
Zn164      O175 1.922       .   S
Zn165      O166 1.942       .   S
Zn165      O173 1.922       .   S
Zn165      O176 1.922       .   S
Zn165      O177 1.922       .   S
O167       C179 1.304       .   A
O168       C180 1.304       .   A
O169       C181 1.304       .   A
O170       C179 1.304       .   A
O171       C181 1.304       .   A
O172       C180 1.304       .   A
O173       C182 1.304       .   A
O174       C183 1.304       .   A
O175       C182 1.304       .   A
O176       C183 1.304       .   A
O177       C184 1.304       .   A
O178       C184 1.304       .   A
C185       C185 0.090       .   A
C185       C189 0.090       .   A
C185       C186 0.091       .   A
C185      Br185 0.127       .   A
C186       C187 0.092       .   A
C186       C191 0.096       .   A
C187       C188 0.090       .   A
C187       C190 0.103       .   A
C188       C189 0.090       .   A
C188       H186 0.073       .   A
C189       H185 0.073       .   A
C190       C192 0.102       .   A
C190       N187 0.098       .   A
C190       H189 0.073       .   A
C192       N185 0.097       .   A
C192       H187 0.073       .   A
C192       H188 0.073       .   A
N185       N186 0.091       .   A
N185       C193 0.092       .   A
N186       N187 0.083       .   A
C193       C186 0.089       .   A
C193       H191 0.073       .   A
C186       H190 0.072       .   A
C208       C208 0.090       .   A
C208       C212 0.090       .   A
C208       C209 0.091       .   A
C208      Br208 0.127       .   A
C209       C210 0.092       .   A
C209       C214 0.096       .   A
C210       C211 0.090       .   A
C210       C213 0.103       .   A
C211       C212 0.090       .   A
C211       H209 0.073       .   A
C212       H208 0.073       .   A
C213       C215 0.102       .   A
C213       N210 0.098       .   A
C213       H212 0.073       .   A
C215       N208 0.097       .   A
C215       H210 0.073       .   A
C215       H211 0.073       .   A
N208       N209 0.091       .   A
N208       C216 0.092       .   A
N209       N210 0.083       .   A
C216       C209 0.089       .   A
C216       H214 0.073       .   A
C209       H213 0.072       .   A
C231       C231 0.090       .   A
C231       C235 0.090       .   A
C231       C232 0.091       .   A
C231      Br231 0.127       .   A
C232       C233 0.092       .   A
C232       C237 0.096       .   A
C233       C234 0.090       .   A
C233       C236 0.103       .   A
C234       C235 0.090       .   A
C234       H232 0.073       .   A
C235       H231 0.073       .   A
C236       C238 0.102       .   A
C236       N233 0.098       .   A
C236       H235 0.073       .   A
C238       N231 0.097       .   A
C238       H233 0.073       .   A
C238       H234 0.073       .   A
N231       N232 0.091       .   A
N231       C239 0.092       .   A
N232       N233 0.083       .   A
C239       C232 0.089       .   A
C239       H237 0.073       .   A
C232       H236 0.072       .   A
C254       C254 0.090       .   A
C254       C258 0.090       .   A
C254       C255 0.091       .   A
C254      Br254 0.127       .   A
C255       C256 0.092       .   A
C255       C260 0.096       .   A
C256       C257 0.090       .   A
C256       C259 0.103       .   A
C257       C258 0.090       .   A
C257       H255 0.073       .   A
C258       H254 0.073       .   A
C259       C261 0.102       .   A
C259       N256 0.098       .   A
C259       H258 0.073       .   A
C261       N254 0.097       .   A
C261       H256 0.073       .   A
C261       H257 0.073       .   A
N254       N255 0.091       .   A
N254       C262 0.092       .   A
N255       N256 0.083       .   A
C262       C255 0.089       .   A
C262       H260 0.073       .   A
C255       H259 0.072       .   A
C277       C277 0.090       .   A
C277       C281 0.090       .   A
C277       C278 0.091       .   A
C277      Br277 0.127       .   A
C278       C279 0.092       .   A
C278       C283 0.096       .   A
C279       C280 0.090       .   A
C279       C282 0.103       .   A
C280       C281 0.090       .   A
C280       H278 0.073       .   A
C281       H277 0.073       .   A
C282       C284 0.102       .   A
C282       N279 0.098       .   A
C282       H281 0.073       .   A
C284       N277 0.097       .   A
C284       H279 0.073       .   A
C284       H280 0.073       .   A
N277       N278 0.091       .   A
N277       C285 0.092       .   A
N278       N279 0.083       .   A
C285       C278 0.089       .   A
C285       H283 0.073       .   A
C278       H282 0.072       .   A
C300       C300 0.090       .   A
C300       C304 0.090       .   A
C300       C301 0.091       .   A
C300      Br300 0.127       .   A
C301       C302 0.092       .   A
C301       C306 0.096       .   A
C302       C303 0.090       .   A
C302       C305 0.103       .   A
C303       C304 0.090       .   A
C303       H301 0.073       .   A
C304       H300 0.073       .   A
C305       C307 0.102       .   A
C305       N302 0.098       .   A
C305       H304 0.073       .   A
C307       N300 0.097       .   A
C307       H302 0.073       .   A
C307       H303 0.073       .   A
N300       N301 0.091       .   A
N300       C308 0.092       .   A
N301       N302 0.083       .   A
C308       C301 0.089       .   A
C308       H306 0.073       .   A
C301       H305 0.072       .   A
C323       C323 0.090       .   A
C323       C327 0.090       .   A
C323       C324 0.091       .   A
C323      Br323 0.127       .   A
C324       C325 0.092       .   A
C324       C329 0.096       .   A
C325       C326 0.090       .   A
C325       C328 0.103       .   A
C326       C327 0.090       .   A
C326       H324 0.073       .   A
C327       H323 0.073       .   A
C328       C330 0.102       .   A
C328       N325 0.098       .   A
C328       H327 0.073       .   A
C330       N323 0.097       .   A
C330       H325 0.073       .   A
C330       H326 0.073       .   A
N323       N324 0.091       .   A
N323       C331 0.092       .   A
N324       N325 0.083       .   A
C331       C324 0.089       .   A
C331       H329 0.073       .   A
C324       H328 0.072       .   A
C346       C346 0.090       .   A
C346       C350 0.090       .   A
C346       C347 0.091       .   A
C346      Br346 0.127       .   A
C347       C348 0.092       .   A
C347       C352 0.096       .   A
C348       C349 0.090       .   A
C348       C351 0.103       .   A
C349       C350 0.090       .   A
C349       H347 0.073       .   A
C350       H346 0.073       .   A
C351       C353 0.102       .   A
C351       N348 0.098       .   A
C351       H350 0.073       .   A
C353       N346 0.097       .   A
C353       H348 0.073       .   A
C353       H349 0.073       .   A
N346       N347 0.091       .   A
N346       C354 0.092       .   A
N347       N348 0.083       .   A
C354       C347 0.089       .   A
C354       H352 0.073       .   A
C347       H351 0.072       .   A
C369       C369 0.090       .   A
C369       C373 0.090       .   A
C369       C370 0.091       .   A
C369      Br369 0.127       .   A
C370       C371 0.092       .   A
C370       C375 0.096       .   A
C371       C372 0.090       .   A
C371       C374 0.103       .   A
C372       C373 0.090       .   A
C372       H370 0.073       .   A
C373       H369 0.073       .   A
C374       C376 0.102       .   A
C374       N371 0.098       .   A
C374       H373 0.073       .   A
C376       N369 0.097       .   A
C376       H371 0.073       .   A
C376       H372 0.073       .   A
N369       N370 0.091       .   A
N369       C377 0.092       .   A
N370       N371 0.083       .   A
C377       C370 0.089       .   A
C377       H375 0.073       .   A
C370       H374 0.072       .   A
C392       C392 0.090       .   A
C392       C396 0.090       .   A
C392       C393 0.091       .   A
C392      Br392 0.127       .   A
C393       C394 0.092       .   A
C393       C398 0.096       .   A
C394       C395 0.090       .   A
C394       C397 0.103       .   A
C395       C396 0.090       .   A
C395       H393 0.073       .   A
C396       H392 0.073       .   A
C397       C399 0.102       .   A
C397       N394 0.098       .   A
C397       H396 0.073       .   A
C399       N392 0.097       .   A
C399       H394 0.073       .   A
C399       H395 0.073       .   A
N392       N393 0.091       .   A
N392       C400 0.092       .   A
N393       N394 0.083       .   A
C400       C393 0.089       .   A
C400       H398 0.073       .   A
C393       H397 0.072       .   A
C415       C415 0.090       .   A
C415       C419 0.090       .   A
C415       C416 0.091       .   A
C415      Br415 0.127       .   A
C416       C417 0.092       .   A
C416       C421 0.096       .   A
C417       C418 0.090       .   A
C417       C420 0.103       .   A
C418       C419 0.090       .   A
C418       H416 0.073       .   A
C419       H415 0.073       .   A
C420       C422 0.102       .   A
C420       N417 0.098       .   A
C420       H419 0.073       .   A
C422       N415 0.097       .   A
C422       H417 0.073       .   A
C422       H418 0.073       .   A
N415       N416 0.091       .   A
N415       C423 0.092       .   A
N416       N417 0.083       .   A
C423       C416 0.089       .   A
C423       H421 0.073       .   A
C416       H420 0.072       .   A
C438       C438 0.090       .   A
C438       C442 0.090       .   A
C438       C439 0.091       .   A
C438      Br438 0.127       .   A
C439       C440 0.092       .   A
C439       C444 0.096       .   A
C440       C441 0.090       .   A
C440       C443 0.103       .   A
C441       C442 0.090       .   A
C441       H439 0.073       .   A
C442       H438 0.073       .   A
C443       C445 0.102       .   A
C443       N440 0.098       .   A
C443       H442 0.073       .   A
C445       N438 0.097       .   A
C445       H440 0.073       .   A
C445       H441 0.073       .   A
N438       N439 0.091       .   A
N438       C446 0.092       .   A
N439       N440 0.083       .   A
C446       C439 0.089       .   A
C446       H444 0.073       .   A
C439       H443 0.072       .   A
C461       C461 0.090       .   A
C461       C465 0.090       .   A
C461       C462 0.091       .   A
C461      Br461 0.127       .   A
C462       C463 0.092       .   A
C462       C467 0.096       .   A
C463       C464 0.090       .   A
C463       C466 0.103       .   A
C464       C465 0.090       .   A
C464       H462 0.073       .   A
C465       H461 0.073       .   A
C466       C468 0.102       .   A
C466       N463 0.098       .   A
C466       H465 0.073       .   A
C468       N461 0.097       .   A
C468       H463 0.073       .   A
C468       H464 0.073       .   A
N461       N462 0.091       .   A
N461       C469 0.092       .   A
N462       N463 0.083       .   A
C469       C462 0.089       .   A
C469       H467 0.073       .   A
C462       H466 0.072       .   A
C484       C484 0.090       .   A
C484       C488 0.090       .   A
C484       C485 0.091       .   A
C484      Br484 0.127       .   A
C485       C486 0.092       .   A
C485       C490 0.096       .   A
C486       C487 0.090       .   A
C486       C489 0.103       .   A
C487       C488 0.090       .   A
C487       H485 0.073       .   A
C488       H484 0.073       .   A
C489       C491 0.102       .   A
C489       N486 0.098       .   A
C489       H488 0.073       .   A
C491       N484 0.097       .   A
C491       H486 0.073       .   A
C491       H487 0.073       .   A
N484       N485 0.091       .   A
N484       C492 0.092       .   A
N485       N486 0.083       .   A
C492       C485 0.089       .   A
C492       H490 0.073       .   A
C485       H489 0.072       .   A
C507       C507 0.090       .   A
C507       C511 0.090       .   A
C507       C508 0.091       .   A
C507      Br507 0.127       .   A
C508       C509 0.092       .   A
C508       C513 0.096       .   A
C509       C510 0.090       .   A
C509       C512 0.103       .   A
C510       C511 0.090       .   A
C510       H508 0.073       .   A
C511       H507 0.073       .   A
C512       C514 0.102       .   A
C512       N509 0.098       .   A
C512       H511 0.073       .   A
C514       N507 0.097       .   A
C514       H509 0.073       .   A
C514       H510 0.073       .   A
N507       N508 0.091       .   A
N507       C515 0.092       .   A
N508       N509 0.083       .   A
C515       C508 0.089       .   A
C515       H513 0.073       .   A
C508       H512 0.072       .   A
C530       C530 0.090       .   A
C530       C534 0.090       .   A
C530       C531 0.091       .   A
C530      Br530 0.127       .   A
C531       C532 0.092       .   A
C531       C536 0.096       .   A
C532       C533 0.090       .   A
C532       C535 0.103       .   A
C533       C534 0.090       .   A
C533       H531 0.073       .   A
C534       H530 0.073       .   A
C535       C537 0.102       .   A
C535       N532 0.098       .   A
C535       H534 0.073       .   A
C537       N530 0.097       .   A
C537       H532 0.073       .   A
C537       H533 0.073       .   A
N530       N531 0.091       .   A
N530       C538 0.092       .   A
N531       N532 0.083       .   A
C538       C531 0.089       .   A
C538       H536 0.073       .   A
C531       H535 0.072       .   A
C553       C553 0.090       .   A
C553       C557 0.090       .   A
C553       C554 0.091       .   A
C553      Br553 0.127       .   A
C554       C555 0.092       .   A
C554       C559 0.096       .   A
C555       C556 0.090       .   A
C555       C558 0.103       .   A
C556       C557 0.090       .   A
C556       H554 0.073       .   A
C557       H553 0.073       .   A
C558       C560 0.102       .   A
C558       N555 0.098       .   A
C558       H557 0.073       .   A
C560       N553 0.097       .   A
C560       H555 0.073       .   A
C560       H556 0.073       .   A
N553       N554 0.091       .   A
N553       C561 0.092       .   A
N554       N555 0.083       .   A
C561       C554 0.089       .   A
C561       H559 0.073       .   A
C554       H558 0.072       .   A
C576       C576 0.090       .   A
C576       C580 0.090       .   A
C576       C577 0.091       .   A
C576      Br576 0.127       .   A
C577       C578 0.092       .   A
C577       C582 0.096       .   A
C578       C579 0.090       .   A
C578       C581 0.103       .   A
C579       C580 0.090       .   A
C579       H577 0.073       .   A
C580       H576 0.073       .   A
C581       C583 0.102       .   A
C581       N578 0.098       .   A
C581       H580 0.073       .   A
C583       N576 0.097       .   A
C583       H578 0.073       .   A
C583       H579 0.073       .   A
N576       N577 0.091       .   A
N576       C584 0.092       .   A
N577       N578 0.083       .   A
C584       C577 0.089       .   A
C584       H582 0.073       .   A
C577       H581 0.072       .   A
C599       C599 0.090       .   A
C599       C603 0.090       .   A
C599       C600 0.091       .   A
C599      Br599 0.127       .   A
C600       C601 0.092       .   A
C600       C605 0.096       .   A
C601       C602 0.090       .   A
C601       C604 0.103       .   A
C602       C603 0.090       .   A
C602       H600 0.073       .   A
C603       H599 0.073       .   A
C604       C606 0.102       .   A
C604       N601 0.098       .   A
C604       H603 0.073       .   A
C606       N599 0.097       .   A
C606       H601 0.073       .   A
C606       H602 0.073       .   A
N599       N600 0.091       .   A
N599       C607 0.092       .   A
N600       N601 0.083       .   A
C607       C600 0.089       .   A
C607       H605 0.073       .   A
C600       H604 0.072       .   A
C622       C622 0.090       .   A
C622       C626 0.090       .   A
C622       C623 0.091       .   A
C622      Br622 0.127       .   A
C623       C624 0.092       .   A
C623       C628 0.096       .   A
C624       C625 0.090       .   A
C624       C627 0.103       .   A
C625       C626 0.090       .   A
C625       H623 0.073       .   A
C626       H622 0.073       .   A
C627       C629 0.102       .   A
C627       N624 0.098       .   A
C627       H626 0.073       .   A
C629       N622 0.097       .   A
C629       H624 0.073       .   A
C629       H625 0.073       .   A
N622       N623 0.091       .   A
N622       C630 0.092       .   A
N623       N624 0.083       .   A
C630       C623 0.089       .   A
C630       H628 0.073       .   A
C623       H627 0.072       .   A
C645       C645 0.090       .   A
C645       C649 0.090       .   A
C645       C646 0.091       .   A
C645      Br645 0.127       .   A
C646       C647 0.092       .   A
C646       C651 0.096       .   A
C647       C648 0.090       .   A
C647       C650 0.103       .   A
C648       C649 0.090       .   A
C648       H646 0.073       .   A
C649       H645 0.073       .   A
C650       C652 0.102       .   A
C650       N647 0.098       .   A
C650       H649 0.073       .   A
C652       N645 0.097       .   A
C652       H647 0.073       .   A
C652       H648 0.073       .   A
N645       N646 0.091       .   A
N645       C653 0.092       .   A
N646       N647 0.083       .   A
C653       C646 0.089       .   A
C653       H651 0.073       .   A
C646       H650 0.072       .   A
C668       C668 0.090       .   A
C668       C672 0.090       .   A
C668       C669 0.091       .   A
C668      Br668 0.127       .   A
C669       C670 0.092       .   A
C669       C674 0.096       .   A
C670       C671 0.090       .   A
C670       C673 0.103       .   A
C671       C672 0.090       .   A
C671       H669 0.073       .   A
C672       H668 0.073       .   A
C673       C675 0.102       .   A
C673       N670 0.098       .   A
C673       H672 0.073       .   A
C675       N668 0.097       .   A
C675       H670 0.073       .   A
C675       H671 0.073       .   A
N668       N669 0.091       .   A
N668       C676 0.092       .   A
N669       N670 0.083       .   A
C676       C669 0.089       .   A
C676       H674 0.073       .   A
C669       H673 0.072       .   A
C691       C691 0.090       .   A
C691       C695 0.090       .   A
C691       C692 0.091       .   A
C691      Br691 0.127       .   A
C692       C693 0.092       .   A
C692       C697 0.096       .   A
C693       C694 0.090       .   A
C693       C696 0.103       .   A
C694       C695 0.090       .   A
C694       H692 0.073       .   A
C695       H691 0.073       .   A
C696       C698 0.102       .   A
C696       N693 0.098       .   A
C696       H695 0.073       .   A
C698       N691 0.097       .   A
C698       H693 0.073       .   A
C698       H694 0.073       .   A
N691       N692 0.091       .   A
N691       C699 0.092       .   A
N692       N693 0.083       .   A
C699       C692 0.089       .   A
C699       H697 0.073       .   A
C692       H696 0.072       .   A
C714       C714 0.090       .   A
C714       C718 0.090       .   A
C714       C715 0.091       .   A
C714      Br714 0.127       .   A
C715       C716 0.092       .   A
C715       C720 0.096       .   A
C716       C717 0.090       .   A
C716       C719 0.103       .   A
C717       C718 0.090       .   A
C717       H715 0.073       .   A
C718       H714 0.073       .   A
C719       C721 0.102       .   A
C719       N716 0.098       .   A
C719       H718 0.073       .   A
C721       N714 0.097       .   A
C721       H716 0.073       .   A
C721       H717 0.073       .   A
N714       N715 0.091       .   A
N714       C722 0.092       .   A
N715       N716 0.083       .   A
C722       C715 0.089       .   A
C722       H720 0.073       .   A
C715       H719 0.072       .   A
C18        C254 1.540       .   S
C19        C185 1.540       .   S
C20        C301 1.540       .   S
C21        C231 1.540       .   S
C22        C278 1.540       .   S
C23        C209 1.540       .   S
C41        C186 1.540   1_655   S
C42        C323 1.540       .   S
C43        C369 1.540       .   S
C44        C208 1.540   1_656   S
C45        C393 1.540       .   S
C46        C347 1.540       .   S
C64        C277 1.540   1_655   S
C65        C415 1.540       .   S
C66        C461 1.540       .   S
C67        C300 1.540   1_665   S
C68        C485 1.540       .   S
C69        C438 1.540       .   S
C87        C507 1.540       .   S
C88        C370 1.540       .   S
C89        C439 1.540   1_556   S
C90        C530 1.540       .   S
C91        C416 1.540       .   S
C92        C392 1.540   1_565   S
C110       C232 1.540   1_565   S
C111       C554 1.540       .   S
C112       C623 1.540       .   S
C113       C255 1.540   1_665   S
C114       C599 1.540       .   S
C115       C576 1.540       .   S
C133       C324 1.540   1_465   S
C134       C553 1.540       .   S
C135       C645 1.540       .   S
C136       C346 1.540   1_565   S
C137       C668 1.540       .   S
C138       C577 1.540   1_556   S
C156       C462 1.540   1_455   S
C157       C600 1.540   1_545   S
C158       C714 1.540       .   S
C159       C484 1.540       .   S
C160       C691 1.540       .   S
C161       C622 1.540       .   S
C179       C508 1.540   1_455   S
C180       C715 1.540   1_556   S
C181       C646 1.540   1_545   S
C182       C531 1.540       .   S
C183       C669 1.540       .   S
C184       C692 1.540       .   S
