data_pcu_v1-6c_Zn_1_Ch_1-36_fer_tobacco
_audit_creation_date              2021-04-07
_audit_creation_method            'tobacco_3.0'
_symmetry_space_group_name_H-M    'P1'
_symmetry_Int_Tables_number       1
_symmetry_cell_setting            triclinic
loop_
_symmetry_equiv_pos_as_xyz
  x,y,z
_cell_length_a                    36.87829234273515
_cell_length_b                    36.87829234273515
_cell_length_c                    36.87829234273515
_cell_angle_alpha                 90.0
_cell_angle_beta                  90.0
_cell_angle_gamma                 90.0
loop_
_atom_site_label
_atom_site_type_symbol
_atom_site_fract_x
_atom_site_fract_y
_atom_site_fract_z
_atom_site_charge
Zn1       Zn   -0.0304027093   -0.0304027093    0.0304027093          1.4972
Zn2       Zn    0.0304027093    0.0304027093    0.0304027093          1.4936
Zn3       Zn    0.0304027093   -0.0304027093   -0.0304027093          1.4911
Zn4       Zn   -0.0304027093    0.0304027093   -0.0304027093          1.4948
O5         O    0.0000000000    0.0000000000    0.0000000000         -2.2296
O6         O   -0.0223437678   -0.0223437678    0.0812564739         -1.1359
O7         O    0.0812564739    0.0223437678    0.0223437678         -1.1341
O8         O    0.0223437678   -0.0812564739   -0.0223437678         -1.1292
O9         O    0.0223437678    0.0223437678    0.0812564739          -1.136
O10        O   -0.0223437678   -0.0812564739    0.0223437678          -1.132
O11        O    0.0812564739   -0.0223437678   -0.0223437678         -1.1379
O12        O   -0.0223437678    0.0223437678   -0.0812564739         -1.1318
O13        O    0.0223437678    0.0812564739    0.0223437678         -1.1393
O14        O    0.0223437678   -0.0223437678   -0.0812564739         -1.1332
O15        O   -0.0223437678    0.0812564739   -0.0223437678         -1.1379
O16        O   -0.0812564739    0.0223437678   -0.0223437678          -1.137
O17        O   -0.0812564739   -0.0223437678    0.0223437678         -1.1349
C18        C   -0.0000000000   -0.0000000000    0.0971520039           0.383
C19        C    0.0971520039   -0.0000000000   -0.0000000000          0.3879
C20        C   -0.0000000000   -0.0971520039    0.0000000000          0.3775
C21        C    0.0000000000    0.0000000000   -0.0971520039          0.3813
C22        C    0.0000000000    0.0971520039   -0.0000000000          0.3926
C23        C   -0.0971520039    0.0000000000    0.0000000000          0.3831
Zn24      Zn    0.9695972907    0.0304027093    0.4695972907          1.4972
Zn25      Zn    1.0304027093   -0.0304027093    0.4695972907          1.4936
Zn26      Zn    1.0304027093    0.0304027093    0.5304027093          1.4911
Zn27      Zn    0.9695972907   -0.0304027093    0.5304027093          1.4948
O28        O    1.0000000000    0.0000000000    0.5000000000         -2.2296
O29        O    0.9776562322    0.0223437678    0.4187435261         -1.1359
O30        O    1.0812564739   -0.0223437678    0.4776562322         -1.1341
O31        O    1.0223437678    0.0812564739    0.5223437678         -1.1292
O32        O    1.0223437678   -0.0223437678    0.4187435261          -1.136
O33        O    0.9776562322    0.0812564739    0.4776562322          -1.132
O34        O    1.0812564739    0.0223437678    0.5223437678         -1.1379
O35        O    0.9776562322   -0.0223437678    0.5812564739         -1.1318
O36        O    1.0223437678   -0.0812564739    0.4776562322         -1.1393
O37        O    1.0223437678    0.0223437678    0.5812564739         -1.1332
O38        O    0.9776562322   -0.0812564739    0.5223437678         -1.1379
O39        O    0.9187435261   -0.0223437678    0.5223437678          -1.137
O40        O    0.9187435261    0.0223437678    0.4776562322         -1.1349
C41        C    1.0000000000    0.0000000000    0.4028479961           0.383
C42        C    1.0971520039    0.0000000000    0.5000000000          0.3879
C43        C    1.0000000000    0.0971520039    0.5000000000          0.3775
C44        C    1.0000000000    0.0000000000    0.5971520039          0.3813
C45        C    1.0000000000   -0.0971520039    0.5000000000          0.3926
C46        C    0.9028479961    0.0000000000    0.5000000000          0.3831
Zn47      Zn    1.0304027093    0.4695972907   -0.0304027093          1.4972
Zn48      Zn    0.9695972907    0.4695972907    0.0304027093          1.4936
Zn49      Zn    1.0304027093    0.5304027093    0.0304027093          1.4911
Zn50      Zn    0.9695972907    0.5304027093   -0.0304027093          1.4948
O51        O    1.0000000000    0.5000000000    0.0000000000         -2.2296
O52        O    1.0223437678    0.4187435261   -0.0223437678         -1.1359
O53        O    0.9776562322    0.4776562322    0.0812564739         -1.1341
O54        O    1.0812564739    0.5223437678    0.0223437678         -1.1292
O55        O    0.9776562322    0.4187435261    0.0223437678          -1.136
O56        O    1.0812564739    0.4776562322   -0.0223437678          -1.132
O57        O    1.0223437678    0.5223437678    0.0812564739         -1.1379
O58        O    0.9776562322    0.5812564739   -0.0223437678         -1.1318
O59        O    0.9187435261    0.4776562322    0.0223437678         -1.1393
O60        O    1.0223437678    0.5812564739    0.0223437678         -1.1332
O61        O    0.9187435261    0.5223437678   -0.0223437678         -1.1379
O62        O    0.9776562322    0.5223437678   -0.0812564739          -1.137
O63        O    1.0223437678    0.4776562322   -0.0812564739         -1.1349
C64        C    1.0000000000    0.4028479961    0.0000000000           0.383
C65        C    1.0000000000    0.5000000000    0.0971520039          0.3879
C66        C    1.0971520039    0.5000000000    0.0000000000          0.3775
C67        C    1.0000000000    0.5971520039    0.0000000000          0.3813
C68        C    0.9028479961    0.5000000000    0.0000000000          0.3926
C69        C    1.0000000000    0.5000000000   -0.0971520039          0.3831
Zn70      Zn    0.9695972907    0.4695972907    0.4695972907          1.4972
Zn71      Zn    1.0304027093    0.4695972907    0.5304027093          1.4936
Zn72      Zn    1.0304027093    0.5304027093    0.4695972907          1.4911
Zn73      Zn    0.9695972907    0.5304027093    0.5304027093          1.4948
O74        O    1.0000000000    0.5000000000    0.5000000000         -2.2296
O75        O    0.9776562322    0.4187435261    0.4776562322         -1.1359
O76        O    1.0812564739    0.4776562322    0.5223437678         -1.1341
O77        O    1.0223437678    0.5223437678    0.4187435261         -1.1292
O78        O    1.0223437678    0.4187435261    0.5223437678          -1.136
O79        O    0.9776562322    0.4776562322    0.4187435261          -1.132
O80        O    1.0812564739    0.5223437678    0.4776562322         -1.1379
O81        O    0.9776562322    0.5812564739    0.5223437678         -1.1318
O82        O    1.0223437678    0.4776562322    0.5812564739         -1.1393
O83        O    1.0223437678    0.5812564739    0.4776562322         -1.1332
O84        O    0.9776562322    0.5223437678    0.5812564739         -1.1379
O85        O    0.9187435261    0.5223437678    0.5223437678          -1.137
O86        O    0.9187435261    0.4776562322    0.4776562322         -1.1349
C87        C    1.0000000000    0.4028479961    0.5000000000           0.383
C88        C    1.0971520039    0.5000000000    0.5000000000          0.3879
C89        C    1.0000000000    0.5000000000    0.4028479961          0.3775
C90        C    1.0000000000    0.5971520039    0.5000000000          0.3813
C91        C    1.0000000000    0.5000000000    0.5971520039          0.3926
C92        C    0.9028479961    0.5000000000    0.5000000000          0.3831
Zn93      Zn    0.4695972907    0.9695972907   -0.0304027093          1.4972
Zn94      Zn    0.4695972907    1.0304027093    0.0304027093          1.4936
Zn95      Zn    0.5304027093    0.9695972907    0.0304027093          1.4911
Zn96      Zn    0.5304027093    1.0304027093   -0.0304027093          1.4948
O97        O    0.5000000000    1.0000000000    0.0000000000         -2.2296
O98        O    0.4187435261    0.9776562322   -0.0223437678         -1.1359
O99        O    0.4776562322    1.0223437678    0.0812564739         -1.1341
O100       O    0.5223437678    0.9187435261    0.0223437678         -1.1292
O101       O    0.4187435261    1.0223437678    0.0223437678          -1.136
O102       O    0.4776562322    0.9187435261   -0.0223437678          -1.132
O103       O    0.5223437678    0.9776562322    0.0812564739         -1.1379
O104       O    0.5812564739    1.0223437678   -0.0223437678         -1.1318
O105       O    0.4776562322    1.0812564739    0.0223437678         -1.1393
O106       O    0.5812564739    0.9776562322    0.0223437678         -1.1332
O107       O    0.5223437678    1.0812564739   -0.0223437678         -1.1379
O108       O    0.5223437678    1.0223437678   -0.0812564739          -1.137
O109       O    0.4776562322    0.9776562322   -0.0812564739         -1.1349
C110       C    0.4028479961    1.0000000000    0.0000000000           0.383
C111       C    0.5000000000    1.0000000000    0.0971520039          0.3879
C112       C    0.5000000000    0.9028479961    0.0000000000          0.3775
C113       C    0.5971520039    1.0000000000    0.0000000000          0.3813
C114       C    0.5000000000    1.0971520039    0.0000000000          0.3926
C115       C    0.5000000000    1.0000000000   -0.0971520039          0.3831
Zn116     Zn    0.4695972907    1.0304027093    0.5304027093          1.4972
Zn117     Zn    0.4695972907    0.9695972907    0.4695972907          1.4936
Zn118     Zn    0.5304027093    1.0304027093    0.4695972907          1.4911
Zn119     Zn    0.5304027093    0.9695972907    0.5304027093          1.4948
O120       O    0.5000000000    1.0000000000    0.5000000000          -2.224
O121       O    0.4187435261    1.0223437678    0.5223437678         -1.1359
O122       O    0.4776562322    0.9776562322    0.4187435261         -1.1341
O123       O    0.5223437678    1.0812564739    0.4776562322         -1.1292
O124       O    0.4187435261    0.9776562322    0.4776562322          -1.136
O125       O    0.4776562322    1.0812564739    0.5223437678          -1.132
O126       O    0.5223437678    1.0223437678    0.4187435261         -1.1379
O127       O    0.5812564739    0.9776562322    0.5223437678         -1.1318
O128       O    0.4776562322    0.9187435261    0.4776562322         -1.1393
O129       O    0.5812564739    1.0223437678    0.4776562322         -1.1332
O130       O    0.5223437678    0.9187435261    0.5223437678         -1.1379
O131       O    0.5223437678    0.9776562322    0.5812564739          -1.137
O132       O    0.4776562322    1.0223437678    0.5812564739         -1.1349
C133       C    0.4028479961    1.0000000000    0.5000000000           0.383
C134       C    0.5000000000    1.0000000000    0.4028479961          0.3879
C135       C    0.5000000000    1.0971520039    0.5000000000          0.3775
C136       C    0.5971520039    1.0000000000    0.5000000000          0.3813
C137       C    0.5000000000    0.9028479961    0.5000000000          0.3926
C138       C    0.5000000000    1.0000000000    0.5971520039          0.3831
Zn139     Zn    0.4695972907    0.5304027093   -0.0304027093          1.4972
Zn140     Zn    0.4695972907    0.4695972907    0.0304027093          1.4936
Zn141     Zn    0.5304027093    0.4695972907   -0.0304027093          1.4911
Zn142     Zn    0.5304027093    0.5304027093    0.0304027093          1.4948
O143       O    0.5000000000    0.5000000000    0.0000000000         -2.2296
O144       O    0.4187435261    0.5223437678   -0.0223437678         -1.1359
O145       O    0.4776562322    0.4187435261    0.0223437678         -1.1341
O146       O    0.5223437678    0.4776562322   -0.0812564739         -1.1292
O147       O    0.4187435261    0.4776562322    0.0223437678          -1.136
O148       O    0.4776562322    0.5223437678   -0.0812564739          -1.132
O149       O    0.5223437678    0.4187435261   -0.0223437678         -1.1379
O150       O    0.5812564739    0.5223437678    0.0223437678         -1.1318
O151       O    0.4776562322    0.4776562322    0.0812564739         -1.1393
O152       O    0.5812564739    0.4776562322   -0.0223437678         -1.1332
O153       O    0.5223437678    0.5223437678    0.0812564739         -1.1379
O154       O    0.5223437678    0.5812564739    0.0223437678          -1.137
O155       O    0.4776562322    0.5812564739   -0.0223437678         -1.1349
C156       C    0.4028479961    0.5000000000    0.0000000000           0.383
C157       C    0.5000000000    0.4028479961    0.0000000000          0.3879
C158       C    0.5000000000    0.5000000000   -0.0971520039          0.3775
C159       C    0.5971520039    0.5000000000    0.0000000000          0.3813
C160       C    0.5000000000    0.5000000000    0.0971520039          0.3926
C161       C    0.5000000000    0.5971520039    0.0000000000          0.3831
Zn162     Zn    0.4695972907    0.5304027093    0.4695972907          1.4972
Zn163     Zn    0.4695972907    0.4695972907    0.5304027093          1.4936
Zn164     Zn    0.5304027093    0.4695972907    0.4695972907          1.4911
Zn165     Zn    0.5304027093    0.5304027093    0.5304027093          1.4948
O166       O    0.5000000000    0.5000000000    0.5000000000         -2.2296
O167       O    0.4187435261    0.5223437678    0.4776562322         -1.1359
O168       O    0.4776562322    0.4187435261    0.5223437678         -1.1341
O169       O    0.5223437678    0.4776562322    0.4187435261         -1.1292
O170       O    0.4187435261    0.4776562322    0.5223437678          -1.136
O171       O    0.4776562322    0.5223437678    0.4187435261          -1.132
O172       O    0.5223437678    0.4187435261    0.4776562322         -1.1379
O173       O    0.5812564739    0.5223437678    0.5223437678         -1.1318
O174       O    0.4776562322    0.4776562322    0.5812564739         -1.1393
O175       O    0.5812564739    0.4776562322    0.4776562322         -1.1332
O176       O    0.5223437678    0.5223437678    0.5812564739         -1.1379
O177       O    0.5223437678    0.5812564739    0.5223437678          -1.137
O178       O    0.4776562322    0.5812564739    0.4776562322         -1.1349
C179       C    0.4028479961    0.5000000000    0.5000000000           0.383
C180       C    0.5000000000    0.4028479961    0.5000000000          0.3879
C181       C    0.5000000000    0.5000000000    0.4028479961          0.3775
C182       C    0.5971520039    0.5000000000    0.5000000000          0.3813
C183       C    0.5000000000    0.5000000000    0.5971520039          0.3926
C184       C    0.5000000000    0.5971520039    0.5000000000          0.3831
C507       C    0.5000000000    0.5000000000   -0.1389109873          0.6087
C508       C    0.5300733135    0.5000288086   -0.1599252933          0.6087
C509       C    0.5286526692    0.5000602592   -0.1962783972          0.6087
C510       C    0.4970658205    0.5000095474   -0.2141358881          0.6087
C511       C    0.4667506955    0.4999796310   -0.1935465899         -0.3913
C512       C    0.4681947866    0.4999749615   -0.1567567519         -0.3913
C513       C    0.4965752476    0.5000141440   -0.2505175480          0.6087
H514       H    0.5541268915    0.5000884117   -0.2112659844          0.6087
H515       H    0.5570764402    0.5000803710   -0.1479983517          0.6087
F516       F    0.4370778134    0.4999195904   -0.1377310791         -0.3912
F517       F    0.4340109879    0.4999287282   -0.2096823183         -0.3912
C518       C    0.4977419664    0.5000183692   -0.2842485242          0.6087
C519       C    0.4988153150    0.4999951845   -0.3226718699         -0.3913
C520       C    0.5000000000    0.5000000000   -0.3610890127         -0.3913
C493       C    0.5000000000    0.5000000000    0.1389109873          0.6087
C494       C    0.5300733135    0.4999711914    0.1599252933          0.6087
C495       C    0.5286526692    0.4999397408    0.1962783972          0.6087
C496       C    0.4970658205    0.4999904526    0.2141358881          0.6087
C497       C    0.4667506955    0.5000203690    0.1935465899         -0.3913
C498       C    0.4681947866    0.5000250385    0.1567567519         -0.3913
C499       C    0.4965752476    0.4999858560    0.2505175480          0.6087
H500       H    0.5541268915    0.4999115883    0.2112659844          0.6087
H501       H    0.5570764402    0.4999196290    0.1479983517          0.6087
F502       F    0.4370778134    0.5000804096    0.1377310791         -0.3912
F503       F    0.4340109879    0.5000712718    0.2096823183         -0.3912
C504       C    0.4977419664    0.4999816308    0.2842485242          0.6087
C505       C    0.4988153150    0.5000048155    0.3226718699         -0.3913
C506       C    0.5000000000    0.5000000000    0.3610890127         -0.3913
C479       C    0.5000000000    0.6389109873    0.5000000000          0.6087
C480       C    0.4999972765    0.6599252933    0.5300733272          0.6087
C481       C    0.4999645936    0.6962783972    0.5286527107          0.6087
C482       C    0.4999879075    0.7141358881    0.4970658299          0.6087
C483       C    0.4999915291    0.6935465899    0.4667506903         -0.3913
C484       C    0.4999974512    0.6567567519    0.4681947768         -0.3913
C485       C    0.4999828854    0.7505175480    0.4965752612          0.6087
H486       H    0.4999585371    0.7112659844    0.5541269479          0.6087
H487       H    0.4999691361    0.6479983517    0.5570764884          0.6087
F488       F    0.5000258320    0.6377310791    0.4370777674         -0.3912
F489       F    0.5000140341    0.7096823183    0.4340109509         -0.3912
C490       C    0.4999796722    0.7842485242    0.4977419832          0.6087
C491       C    0.5000037879    0.8226718699    0.4988153112         -0.3913
C492       C    0.5000000000    0.8610890127    0.5000000000         -0.3913
C465       C    0.5000000000    1.1389109873    0.5000000000          0.6087
C466       C    0.4699266865    1.1599252933    0.4999711914          0.6087
C467       C    0.4713473308    1.1962783972    0.4999397408          0.6087
C468       C    0.5029341795    1.2141358881    0.4999904526          0.6087
C469       C    0.5332493045    1.1935465899    0.5000203690         -0.3913
C470       C    0.5318052134    1.1567567519    0.5000250385         -0.3913
C471       C    0.5034247524    1.2505175480    0.4999858560          0.6087
H472       H    0.4458731085    1.2112659844    0.4999115883          0.6087
H473       H    0.4429235598    1.1479983517    0.4999196290          0.6087
F474       F    0.5629221866    1.1377310791    0.5000804096         -0.3912
F475       F    0.5659890121    1.2096823183    0.5000712718         -0.3912
C476       C    0.5022580336    1.2842485242    0.4999816308          0.6087
C477       C    0.5011846850    1.3226718699    0.5000048155         -0.3913
C478       C    0.5000000000    1.3610890127    0.5000000000         -0.3913
C451       C    0.5000000000    0.8610890127    0.0000000000          0.6087
C452       C    0.5204105609    0.8400747067    0.0220865122          0.6087
C453       C    0.5194704977    0.8037216028    0.0210209134          0.6087
C454       C    0.4980176757    0.7858641119   -0.0021633056          0.6087
C455       C    0.4774423549    0.8064534101   -0.0244268155         -0.3913
C456       C    0.4784180008    0.8432432481   -0.0233621390         -0.3913
C457       C    0.4976884514    0.7494824520   -0.0025270283          0.6087
H458       H    0.5367624417    0.7887340156    0.0397272083          0.6087
H459       H    0.5387562937    0.8520016483    0.0419007898          0.6087
F460       F    0.4572803245    0.8622689209   -0.0461978068         -0.3912
F461       F    0.4552077666    0.7903176817   -0.0484583390         -0.3912
C462       C    0.4984825801    0.7157514758   -0.0016722709          0.6087
C463       C    0.4991932565    0.6773281301   -0.0008675637         -0.3913
C464       C    0.5000000000    0.6389109873    0.0000000000         -0.3913
C437       C    0.5000000000    1.1389109873    0.0000000000          0.6087
C438       C    0.4891968926    1.1599252933   -0.0280659560          0.6087
C439       C    0.4897378347    1.1962783972   -0.0267519540          0.6087
C440       C    0.5010655618    1.2141358881    0.0027338761          0.6087
C441       C    0.5119547167    1.1935465899    0.0310258186         -0.3913
C442       C    0.5114303152    1.1567567519    0.0296802986         -0.3913
C443       C    0.5012465148    1.2505175480    0.0031898793          0.6087
H444       H    0.4805903371    1.2112659844   -0.0505271530          0.6087
H445       H    0.4795206462    1.1479983517   -0.0532759097          0.6087
F446       F    0.5225844843    1.1377310791    0.0587294568         -0.3912
F447       F    0.5236974323    1.2096823183    0.0615872267         -0.3912
C448       C    0.5008302984    1.2842485242    0.0020999185          0.6087
C449       C    0.5004221357    1.3226718699    0.0011069342         -0.3913
C450       C    0.5000000000    1.3610890127    0.0000000000         -0.3913
C423       C    0.5000000000    1.0000000000   -0.3610890127          0.6087
C424       C    0.4699266871    1.0000294256   -0.3400747067          0.6087
C425       C    0.4713473321    1.0000608471   -0.3037216028          0.6087
C426       C    0.5029341797    1.0000094872   -0.2858641119          0.6087
C427       C    0.5332493041    0.9999789488   -0.3064534101         -0.3913
C428       C    0.5318052129    0.9999743089   -0.3432432481         -0.3913
C429       C    0.5034247527    1.0000140738   -0.2494824520          0.6087
H430       H    0.4458731103    1.0000895222   -0.2887340156          0.6087
H431       H    0.4429235615    1.0000815421   -0.3520016483          0.6087
F432       F    0.5629221849    0.9999182994   -0.3622689209         -0.3912
F433       F    0.5659890106    0.9999273742   -0.2903176817         -0.3912
C434       C    0.5022580340    1.0000183229   -0.2157514758          0.6087
C435       C    0.5011846849    0.9999951602   -0.1773281301         -0.3913
C436       C    0.5000000000    1.0000000000   -0.1389109873         -0.3913
C409       C    0.5000000000    1.0000000000    0.1389109873          0.6087
C410       C    0.5300733135    0.9999711914    0.1599252933          0.6087
C411       C    0.5286526692    0.9999397408    0.1962783972          0.6087
C412       C    0.4970658205    0.9999904526    0.2141358881          0.6087
C413       C    0.4667506955    1.0000203690    0.1935465899         -0.3913
C414       C    0.4681947866    1.0000250385    0.1567567519         -0.3913
C415       C    0.4965752476    0.9999858560    0.2505175480          0.6087
H416       H    0.5541268915    0.9999115883    0.2112659844          0.6087
H417       H    0.5570764402    0.9999196290    0.1479983517          0.6087
F418       F    0.4370778134    1.0000804096    0.1377310791         -0.3912
F419       F    0.4340109879    1.0000712718    0.2096823183         -0.3912
C420       C    0.4977419664    0.9999816308    0.2842485242          0.6087
C421       C    0.4988153150    1.0000048155    0.3226718699         -0.3913
C422       C    0.5000000000    1.0000000000    0.3610890127         -0.3913
C395       C    0.8610890127    0.5000000000    0.5000000000          0.6087
C396       C    0.8400747067    0.4730870086    0.5134199818          0.6087
C397       C    0.8037216028    0.4743436914    0.5127566810          0.6087
C398       C    0.7858641119    0.5026203093    0.4986795910          0.6087
C399       C    0.8064534101    0.5297500926    0.4851524864         -0.3913
C400       C    0.8432432481    0.5284604633    0.4858023150         -0.3913
C401       C    0.7494824520    0.5030570639    0.4984561448          0.6087
H402       H    0.7887340156    0.4515448088    0.5241210003          0.6087
H403       H    0.8520016483    0.4489100784    0.5254469330          0.6087
F404       F    0.8622689209    0.5563188680    0.4719394737         -0.3912
F405       F    0.7903176817    0.5590580102    0.4705601253         -0.3912
C406       C    0.7157514758    0.5020115630    0.4989740043          0.6087
C407       C    0.6773281301    0.5010618353    0.4994746358         -0.3913
C408       C    0.6389109873    0.5000000000    0.5000000000         -0.3913
C381       C    1.1389109873    0.5000000000    0.5000000000          0.6087
C382       C    1.1599252933    0.5268837803    0.4865215960          0.6087
C383       C    1.1962783972    0.5255991299    0.4871289617          0.6087
C384       C    1.2141358881    0.4973714873    0.5013040020          0.6087
C385       C    1.1935465899    0.4702719336    0.5148915659         -0.3913
C386       C    1.1567567519    0.4715655741    0.5142497596         -0.3913
C387       C    1.2505175480    0.4969306775    0.5015193380          0.6087
H388       H    1.2112659844    0.5483699149    0.4757084472          0.6087
H389       H    1.1479983517    0.5510114994    0.4743962225          0.6087
F390       F    1.1377310791    0.4437602582    0.5282187786         -0.3912
F391       F    1.2096823183    0.4410132941    0.5295824833         -0.3912
C392       C    1.2842485242    0.4979722656    0.5009936530          0.6087
C393       C    1.3226718699    0.4989426074    0.5005342497         -0.3913
C394       C    1.3610890127    0.5000000000    0.5000000000         -0.3913
C367       C    0.6389109873    0.5000000000    0.0000000000          0.6087
C368       C    0.6599252933    0.4929827980   -0.0292431854          0.6087
C369       C    0.6962783972    0.4932823731   -0.0278541302          0.6087
C370       C    0.7141358881    0.5006726314    0.0028560581          0.6087
C371       C    0.6935465899    0.5077471090    0.0323341765         -0.3913
C372       C    0.6567567519    0.5074160370    0.0309285406         -0.3913
C373       C    0.7505175480    0.5007821721    0.0033342669          0.6087
H374       H    0.7112659844    0.4873346600   -0.0526243040          0.6087
H375       H    0.6479983517    0.4866569913   -0.0554949602          0.6087
F376       F    0.6377310791    0.5147016257    0.0611806361         -0.3912
F377       F    0.7096823183    0.5154054831    0.0641656129         -0.3912
C378       C    0.7842485242    0.5005069116    0.0022004758          0.6087
C379       C    0.8226718699    0.5002800101    0.0011511282         -0.3913
C380       C    0.8610890127    0.5000000000    0.0000000000         -0.3913
C353       C    1.1389109873    0.5000000000    0.0000000000          0.6087
C354       C    1.1599252933    0.5239105435   -0.0182398170          0.6087
C355       C    1.1962783972    0.5227611490   -0.0174042862          0.6087
C356       C    1.2141358881    0.4976596209    0.0017697814          0.6087
C357       C    1.1935465899    0.4735573498    0.0201569571         -0.3913
C358       C    1.1567567519    0.4747091772    0.0192859149         -0.3913
C359       C    1.2505175480    0.4972665095    0.0020632883          0.6087
H360       H    1.2112659844    0.5430127982   -0.0328576839          0.6087
H361       H    1.1479983517    0.5453644932   -0.0346379740          0.6087
F362       F    1.1377310791    0.4499843306    0.0381790628         -0.3912
F363       F    1.2096823183    0.4475386591    0.0400295204         -0.3912
C364       C    1.2842485242    0.4981922562    0.0013531872          0.6087
C365       C    1.3226718699    0.4990603159    0.0007214538         -0.3913
C366       C    1.3610890127    0.5000000000    0.0000000000         -0.3913
C339       C    1.0000000000    0.5000000000   -0.1389109873          0.6087
C340       C    1.0300733135    0.5000288086   -0.1599252933          0.6087
C341       C    1.0286526692    0.5000602592   -0.1962783972          0.6087
C342       C    0.9970658205    0.5000095474   -0.2141358881          0.6087
C343       C    0.9667506955    0.4999796310   -0.1935465899         -0.3913
C344       C    0.9681947866    0.4999749615   -0.1567567519         -0.3913
C345       C    0.9965752476    0.5000141440   -0.2505175480          0.6087
H346       H    1.0541268915    0.5000884117   -0.2112659844          0.6087
H347       H    1.0570764402    0.5000803710   -0.1479983517          0.6087
F348       F    0.9370778134    0.4999195904   -0.1377310791         -0.3912
F349       F    0.9340109879    0.4999287282   -0.2096823183         -0.3912
C350       C    0.9977419664    0.5000183692   -0.2842485242          0.6087
C351       C    0.9988153150    0.4999951845   -0.3226718699         -0.3913
C352       C    1.0000000000    0.5000000000   -0.3610890127         -0.3913
C325       C    1.0000000000    0.5000000000    0.1389109873          0.6087
C326       C    0.9699266865    0.5000288086    0.1599252933          0.6087
C327       C    0.9713473308    0.5000602592    0.1962783972          0.6087
C328       C    1.0029341795    0.5000095474    0.2141358881          0.6087
C329       C    1.0332493045    0.4999796310    0.1935465899         -0.3913
C330       C    1.0318052134    0.4999749615    0.1567567519         -0.3913
C331       C    1.0034247524    0.5000141440    0.2505175480          0.6087
H332       H    0.9458731085    0.5000884117    0.2112659844          0.6087
H333       H    0.9429235598    0.5000803710    0.1479983517          0.6087
F334       F    1.0629221866    0.4999195904    0.1377310791         -0.3912
F335       F    1.0659890121    0.4999287282    0.2096823183         -0.3912
C336       C    1.0022580336    0.5000183692    0.2842485242          0.6087
C337       C    1.0011846850    0.4999951845    0.3226718699         -0.3913
C338       C    1.0000000000    0.5000000000    0.3610890127         -0.3913
C311       C    1.0000000000   -0.1389109873    0.5000000000          0.6087
C312       C    1.0300733135   -0.1599252933    0.4999711914          0.6087
C313       C    1.0286526692   -0.1962783972    0.4999397408          0.6087
C314       C    0.9970658205   -0.2141358881    0.4999904526          0.6087
C315       C    0.9667506955   -0.1935465899    0.5000203690         -0.3913
C316       C    0.9681947866   -0.1567567519    0.5000250385         -0.3913
C317       C    0.9965752476   -0.2505175480    0.4999858560          0.6087
H318       H    1.0541268915   -0.2112659844    0.4999115883          0.6087
H319       H    1.0570764402   -0.1479983517    0.4999196290          0.6087
F320       F    0.9370778134   -0.1377310791    0.5000804096         -0.3912
F321       F    0.9340109879   -0.2096823183    0.5000712718         -0.3912
C322       C    0.9977419664   -0.2842485242    0.4999816308          0.6087
C323       C    0.9988153150   -0.3226718699    0.5000048155         -0.3913
C324       C    1.0000000000   -0.3610890127    0.5000000000         -0.3913
C297       C    1.0000000000    0.1389109873    0.5000000000          0.6087
C298       C    1.0000628442    0.1599252933    0.4699267383          0.6087
C299       C    1.0000926870    0.1962783972    0.4713474174          0.6087
C300       C    1.0000062266    0.2141358881    0.5029341884          0.6087
C301       C    0.9999420010    0.1935465899    0.5332492602         -0.3913
C302       C    0.9999389658    0.1567567519    0.5318051647         -0.3913
C303       C    1.0000102680    0.2505175480    0.5034247662          0.6087
H304       H    1.0001496700    0.2112659844    0.4458732432          0.6087
H305       H    1.0001449675    0.1479983517    0.4429236873          0.6087
F306       F    0.9998483779    0.1377310791    0.5629220553         -0.3912
F307       F    0.9998540448    0.2096823183    0.5659888891         -0.3912
C308       C    1.0000158137    0.2842485242    0.5022580529          0.6087
C309       C    0.9999938438    0.3226718699    0.5011846788         -0.3913
C310       C    1.0000000000    0.3610890127    0.5000000000         -0.3913
C283       C    0.8610890127   -0.0000000000    0.5000000000          0.6087
C284       C    0.8400747067    0.0220960429    0.5204002427          0.6087
C285       C    0.8037216028    0.0210300052    0.5194606773          0.6087
C286       C    0.7858641119   -0.0021642313    0.4980186864          0.6087
C287       C    0.8064534101   -0.0244373488    0.4774537664         -0.3913
C288       C    0.8432432481   -0.0233722168    0.4784289149         -0.3913
C289       C    0.7494824520   -0.0025281077    0.4976896320          0.6087
H290       H    0.7887340156    0.0397443746    0.5367438823          0.6087
H291       H    0.8520016483    0.0419188871    0.5387367189          0.6087
F292       F    0.8622689209   -0.0462177548    0.4573019068         -0.3912
F293       F    0.7903176817   -0.0484792548    0.4552304049         -0.3912
C294       C    0.7157514758   -0.0016729795    0.4984833614          0.6087
C295       C    0.6773281301   -0.0008679404    0.4991936618         -0.3913
C296       C    0.6389109873   -0.0000000000    0.5000000000         -0.3913
C269       C    1.1389109873   -0.0000000000    0.5000000000          0.6087
C270       C    1.1599252933   -0.0192992496    0.5230639108          0.6087
C271       C    1.1962783972   -0.0183624215    0.5219954668          0.6087
C272       C    1.2141358881    0.0018924507    0.4977576506          0.6087
C273       C    1.1935465899    0.0213462090    0.4745077261         -0.3913
C274       C    1.1567567519    0.0204148395    0.4756113437         -0.3913
C275       C    1.2505175480    0.0022111535    0.4973846742          0.6087
H276       H    1.2112659844   -0.0347073768    0.5415346385          0.6087
H277       H    1.1479983517   -0.0366085471    0.5437897335          0.6087
F278       F    1.1377310791    0.0403642583    0.4517306031         -0.3912
F279       F    1.2096823183    0.0423416167    0.4493863429         -0.3912
C280       C    1.2842485242    0.0014648046    0.4982814540          0.6087
C281       C    1.3226718699    0.0007574394    0.4990890733         -0.3913
C282       C    1.3610890127   -0.0000000000    0.5000000000         -0.3913
C255       C    0.0000000000   -0.3610890127    0.0000000000          0.6087
C256       C   -0.0122530781   -0.3400747067    0.0274639235          0.6087
C257       C   -0.0117042277   -0.3037216028    0.0261532051          0.6087
C258       C    0.0011842121   -0.2858641119   -0.0026846121          0.6087
C259       C    0.0135366144   -0.3064534101   -0.0303690095         -0.3913
C260       C    0.0129537636   -0.3432432481   -0.0290477579         -0.3913
C261       C    0.0013794623   -0.2494824520   -0.0031346790          0.6087
H262       H   -0.0220868767   -0.2887340156    0.0494155652          0.6087
H263       H   -0.0232787139   -0.3520016483    0.0521136063          0.6087
F264       F    0.0256554253   -0.3622689209   -0.0574543922         -0.3912
F265       F    0.0268939408   -0.2903176817   -0.0602600260         -0.3912
C266       C    0.0009012550   -0.2157514758   -0.0020704571          0.6087
C267       C    0.0004860510   -0.1773281301   -0.0010803963         -0.3913
C268       C   -0.0000000000   -0.1389109873    0.0000000000         -0.3913
C241       C    0.0000000000    0.3610890127    0.0000000000          0.6087
C242       C    0.0188299748    0.3400747067   -0.0234486048          0.6087
C243       C    0.0179148948    0.3037216028   -0.0223614764          0.6087
C244       C   -0.0018468230    0.2858641119    0.0022800758          0.6087
C245       C   -0.0208275219    0.3064534101    0.0259177738         -0.3913
C246       C   -0.0199186091    0.3432432481    0.0247955892         -0.3913
C247       C   -0.0021579355    0.2494824520    0.0026594065          0.6087
H248       H    0.0338622931    0.2887340156   -0.0422264527          0.6087
H249       H    0.0357175768    0.3520016483   -0.0445194474          0.6087
F250       F   -0.0393821401    0.3622689209    0.0490739755         -0.3912
F251       F   -0.0413117973    0.2903176817    0.0514576544         -0.3912
C252       C   -0.0014298324    0.2157514758    0.0017477507          0.6087
C253       C   -0.0007389060    0.1773281301    0.0009260236         -0.3913
C254       C    0.0000000000    0.1389109873    0.0000000000         -0.3913
C227       C   -0.3610890127   -0.0000000000    0.0000000000          0.6087
C228       C   -0.3400747067    0.0299489033    0.0027328022          0.6087
C229       C   -0.3037216028    0.0285371489    0.0025710335          0.6087
C230       C   -0.2858641119   -0.0029209063   -0.0002789388          0.6087
C231       C   -0.3064534101   -0.0331107012   -0.0030328423         -0.3913
C232       C   -0.3432432481   -0.0316731400   -0.0028955885         -0.3913
C233       C   -0.2494824520   -0.0034089845   -0.0003285630          0.6087
H234       H   -0.2887340156    0.0539063313    0.0048821764          0.6087
H235       H   -0.3520016483    0.0568426802    0.0051610260          0.6087
F236       F   -0.3622689209   -0.0626637327   -0.0056977746         -0.3912
F237       F   -0.2903176817   -0.0657167622   -0.0059884858         -0.3912
C238       C   -0.2157514758   -0.0022468070   -0.0002256361          0.6087
C239       C   -0.1773281301   -0.0011801221   -0.0001039889         -0.3913
C240       C   -0.1389109873   -0.0000000000    0.0000000000         -0.3913
C213       C    0.1389109873   -0.0000000000    0.0000000000          0.6087
C214       C    0.1599252933   -0.0247960764   -0.0170164513          0.6087
C215       C    0.1962783972   -0.0236433170   -0.0161855689          0.6087
C216       C    0.2141358881    0.0024122900    0.0016704363          0.6087
C217       C    0.1935465899    0.0274082414    0.0188229904         -0.3913
C218       C    0.1567567519    0.0262209878    0.0180008896         -0.3913
C219       C    0.2505175480    0.0028139068    0.0019521930          0.6087
H220       H    0.2112659844   -0.0446494711   -0.0305966164          0.6087
H221       H    0.1479983517   -0.0470752787   -0.0322745197          0.6087
F222       F    0.1377310791    0.0518920677    0.0355868141         -0.3912
F223       F    0.2096823183    0.0544138872    0.0373320729         -0.3912
C224       C    0.2842485242    0.0018501619    0.0012945865          0.6087
C225       C    0.3226718699    0.0009788831    0.0006673003         -0.3913
C226       C    0.3610890127   -0.0000000000    0.0000000000         -0.3913
C199       C    0.0000000000    0.0000000000   -0.1389109873          0.6087
C200       C   -0.0288827735    0.0083779717   -0.1599252933          0.6087
C201       C   -0.0275275405    0.0079506978   -0.1962783972          0.6087
C202       C    0.0028145673   -0.0008292838   -0.2141358881          0.6087
C203       C    0.0319298244   -0.0092737793   -0.1935465899         -0.3913
C204       C    0.0305445936   -0.0088656657   -0.1567567519         -0.3913
C205       C    0.0032843032   -0.0009708146   -0.2505175480          0.6087
H206       H   -0.0519943394    0.0150438319   -0.2112659844          0.6087
H207       H   -0.0548240844    0.0158759648   -0.1479983517          0.6087
F208       F    0.0604368554   -0.0175098412   -0.1377310791         -0.3912
F209       F    0.0633788964   -0.0183758069   -0.2096823183         -0.3912
C210       C    0.0021629039   -0.0006487681   -0.2842485242          0.6087
C211       C    0.0011388146   -0.0003265015   -0.3226718699         -0.3913
C212       C   -0.0000000000    0.0000000000   -0.3610890127         -0.3913
C185       C   -0.0000000000    0.0000000000    0.1389109873          0.6087
C186       C    0.0040860070   -0.0297944552    0.1599252933          0.6087
C187       C    0.0038604836   -0.0283914731    0.1962783972          0.6087
C188       C   -0.0004109037    0.0029052812    0.2141358881          0.6087
C189       C   -0.0045288972    0.0329394256    0.1935465899         -0.3913
C190       C   -0.0043266952    0.0315095531    0.1567567519         -0.3913
C191       C   -0.0004825758    0.0033906120    0.2505175480          0.6087
H192       H    0.0073179061   -0.0536299958    0.2112659844          0.6087
H193       H    0.0077294200   -0.0565507078    0.1479983517          0.6087
F194       F   -0.0085291800    0.0623414879    0.1377310791         -0.3912
F195       F   -0.0089578261    0.0653782238    0.2096823183         -0.3912
C196       C   -0.0003271342    0.0022342865    0.2842485242          0.6087
C197       C   -0.0001573150    0.0011742035    0.3226718699         -0.3913
C198       C   -0.0000000000    0.0000000000    0.3610890127         -0.3913
loop_
_geom_bond_atom_site_label_1
_geom_bond_atom_site_label_2
_geom_bond_distance
_geom_bond_site_symmetry_2
_ccdc_geom_bond_type
Zn1          O5 1.942       .   S
Zn1          O6 1.922       .   S
Zn1         O10 1.922       .   S
Zn1         O17 1.922       .   S
Zn2          O5 1.942       .   S
Zn2          O7 1.922       .   S
Zn2          O9 1.922       .   S
Zn2         O13 1.922       .   S
Zn3          O5 1.942       .   S
Zn3          O8 1.922       .   S
Zn3         O11 1.922       .   S
Zn3         O14 1.922       .   S
Zn4          O5 1.942       .   S
Zn4         O12 1.922       .   S
Zn4         O15 1.922       .   S
Zn4         O16 1.922       .   S
O6          C18 1.304       .   A
O7          C19 1.304       .   A
O8          C20 1.304       .   A
O9          C18 1.304       .   A
O10         C20 1.304       .   A
O11         C19 1.304       .   A
O12         C21 1.304       .   A
O13         C22 1.304       .   A
O14         C21 1.304       .   A
O15         C22 1.304       .   A
O16         C23 1.304       .   A
O17         C23 1.304       .   A
C18        C185 1.540       .   S
C19        C213 1.540       .   S
C20        C268 1.540       .   S
C21        C199 1.540       .   S
C22        C254 1.540       .   S
C23        C240 1.540       .   S
Zn24        O28 1.942       .   S
Zn24        O29 1.922       .   S
Zn24        O33 1.922       .   S
Zn24        O40 1.922       .   S
Zn25        O28 1.942       .   S
Zn25        O30 1.922       .   S
Zn25        O32 1.922       .   S
Zn25        O36 1.922       .   S
Zn26        O28 1.942       .   S
Zn26        O31 1.922       .   S
Zn26        O34 1.922       .   S
Zn26        O37 1.922       .   S
Zn27        O28 1.942       .   S
Zn27        O35 1.922       .   S
Zn27        O38 1.922       .   S
Zn27        O39 1.922       .   S
O29         C41 1.304       .   A
O30         C42 1.304       .   A
O31         C43 1.304       .   A
O32         C41 1.304       .   A
O33         C43 1.304       .   A
O34         C42 1.304       .   A
O35         C44 1.304       .   A
O36         C45 1.304       .   A
O37         C44 1.304       .   A
O38         C45 1.304       .   A
O39         C46 1.304       .   A
O40         C46 1.304       .   A
C41        C198 1.540   1_655   S
C42        C269 1.540       .   S
C43        C297 1.540       .   S
C44        C212 1.540   1_656   S
C45        C311 1.540       .   S
C46        C283 1.540       .   S
Zn47        O51 1.942       .   S
Zn47        O52 1.922       .   S
Zn47        O56 1.922       .   S
Zn47        O63 1.922       .   S
Zn48        O51 1.942       .   S
Zn48        O53 1.922       .   S
Zn48        O55 1.922       .   S
Zn48        O59 1.922       .   S
Zn49        O51 1.942       .   S
Zn49        O54 1.922       .   S
Zn49        O57 1.922       .   S
Zn49        O60 1.922       .   S
Zn50        O51 1.942       .   S
Zn50        O58 1.922       .   S
Zn50        O61 1.922       .   S
Zn50        O62 1.922       .   S
O52         C64 1.304       .   A
O53         C65 1.304       .   A
O54         C66 1.304       .   A
O55         C64 1.304       .   A
O56         C66 1.304       .   A
O57         C65 1.304       .   A
O58         C67 1.304       .   A
O59         C68 1.304       .   A
O60         C67 1.304       .   A
O61         C68 1.304       .   A
O62         C69 1.304       .   A
O63         C69 1.304       .   A
C64        C241 1.540   1_655   S
C65        C325 1.540       .   S
C66        C353 1.540       .   S
C67        C255 1.540   1_665   S
C68        C380 1.540       .   S
C69        C339 1.540       .   S
Zn70        O74 1.942       .   S
Zn70        O75 1.922       .   S
Zn70        O79 1.922       .   S
Zn70        O86 1.922       .   S
Zn71        O74 1.942       .   S
Zn71        O76 1.922       .   S
Zn71        O78 1.922       .   S
Zn71        O82 1.922       .   S
Zn72        O74 1.942       .   S
Zn72        O77 1.922       .   S
Zn72        O80 1.922       .   S
Zn72        O83 1.922       .   S
Zn73        O74 1.942       .   S
Zn73        O81 1.922       .   S
Zn73        O84 1.922       .   S
Zn73        O85 1.922       .   S
O75         C87 1.304       .   A
O76         C88 1.304       .   A
O77         C89 1.304       .   A
O78         C87 1.304       .   A
O79         C89 1.304       .   A
O80         C88 1.304       .   A
O81         C90 1.304       .   A
O82         C91 1.304       .   A
O83         C90 1.304       .   A
O84         C91 1.304       .   A
O85         C92 1.304       .   A
O86         C92 1.304       .   A
C87        C310 1.540       .   S
C88        C381 1.540       .   S
C89        C338 1.540       .   S
C90        C324 1.540   1_565   S
C91        C352 1.540   1_556   S
C92        C395 1.540       .   S
Zn93        O97 1.942       .   S
Zn93        O98 1.922       .   S
Zn93       O102 1.922       .   S
Zn93       O109 1.922       .   S
Zn94        O97 1.942       .   S
Zn94        O99 1.922       .   S
Zn94       O101 1.922       .   S
Zn94       O105 1.922       .   S
Zn95        O97 1.942       .   S
Zn95       O100 1.922       .   S
Zn95       O103 1.922       .   S
Zn95       O106 1.922       .   S
Zn96        O97 1.942       .   S
Zn96       O104 1.922       .   S
Zn96       O107 1.922       .   S
Zn96       O108 1.922       .   S
O98        C110 1.304       .   A
O99        C111 1.304       .   A
O100       C112 1.304       .   A
O101       C110 1.304       .   A
O102       C112 1.304       .   A
O103       C111 1.304       .   A
O104       C113 1.304       .   A
O105       C114 1.304       .   A
O106       C113 1.304       .   A
O107       C114 1.304       .   A
O108       C115 1.304       .   A
O109       C115 1.304       .   A
C110       C226 1.540   1_565   S
C111       C409 1.540       .   S
C112       C451 1.540       .   S
C113       C227 1.540   1_665   S
C114       C437 1.540       .   S
C115       C436 1.540       .   S
Zn116      O120 1.942       .   S
Zn116      O121 1.922       .   S
Zn116      O125 1.922       .   S
Zn116      O132 1.922       .   S
Zn117      O120 1.942       .   S
Zn117      O122 1.922       .   S
Zn117      O124 1.922       .   S
Zn117      O128 1.922       .   S
Zn118      O120 1.942       .   S
Zn118      O123 1.922       .   S
Zn118      O126 1.922       .   S
Zn118      O129 1.922       .   S
Zn119      O120 1.942       .   S
Zn119      O127 1.922       .   S
Zn119      O130 1.922       .   S
Zn119      O131 1.922       .   S
O121       C133 1.304       .   A
O122       C134 1.304       .   A
O123       C135 1.304       .   A
O124       C133 1.304       .   A
O125       C135 1.304       .   A
O126       C134 1.304       .   A
O127       C136 1.304       .   A
O128       C137 1.304       .   A
O129       C136 1.304       .   A
O130       C137 1.304       .   A
O131       C138 1.304       .   A
O132       C138 1.304       .   A
C133       C282 1.540   1_465   S
C134       C422 1.540       .   S
C135       C465 1.540       .   S
C136       C296 1.540   1_565   S
C137       C492 1.540       .   S
C138       C423 1.540   1_556   S
Zn139      O143 1.942       .   S
Zn139      O144 1.922       .   S
Zn139      O148 1.922       .   S
Zn139      O155 1.922       .   S
Zn140      O143 1.942       .   S
Zn140      O145 1.922       .   S
Zn140      O147 1.922       .   S
Zn140      O151 1.922       .   S
Zn141      O143 1.942       .   S
Zn141      O146 1.922       .   S
Zn141      O149 1.922       .   S
Zn141      O152 1.922       .   S
Zn142      O143 1.942       .   S
Zn142      O150 1.922       .   S
Zn142      O153 1.922       .   S
Zn142      O154 1.922       .   S
O144       C156 1.304       .   A
O145       C157 1.304       .   A
O146       C158 1.304       .   A
O147       C156 1.304       .   A
O148       C158 1.304       .   A
O149       C157 1.304       .   A
O150       C159 1.304       .   A
O151       C160 1.304       .   A
O152       C159 1.304       .   A
O153       C160 1.304       .   A
O154       C161 1.304       .   A
O155       C161 1.304       .   A
C156       C366 1.540   1_455   S
C157       C450 1.540   1_545   S
C158       C507 1.540       .   S
C159       C367 1.540       .   S
C160       C493 1.540       .   S
C161       C464 1.540       .   S
Zn162      O166 1.942       .   S
Zn162      O167 1.922       .   S
Zn162      O171 1.922       .   S
Zn162      O178 1.922       .   S
Zn163      O166 1.942       .   S
Zn163      O168 1.922       .   S
Zn163      O170 1.922       .   S
Zn163      O174 1.922       .   S
Zn164      O166 1.942       .   S
Zn164      O169 1.922       .   S
Zn164      O172 1.922       .   S
Zn164      O175 1.922       .   S
Zn165      O166 1.942       .   S
Zn165      O173 1.922       .   S
Zn165      O176 1.922       .   S
Zn165      O177 1.922       .   S
O167       C179 1.304       .   A
O168       C180 1.304       .   A
O169       C181 1.304       .   A
O170       C179 1.304       .   A
O171       C181 1.304       .   A
O172       C180 1.304       .   A
O173       C182 1.304       .   A
O174       C183 1.304       .   A
O175       C182 1.304       .   A
O176       C183 1.304       .   A
O177       C184 1.304       .   A
O178       C184 1.304       .   A
C179       C394 1.540   1_455   S
C180       C478 1.540   1_545   S
C181       C506 1.540       .   S
C182       C408 1.540       .   S
C183       C520 1.540   1_556   S
C184       C479 1.540       .   S
C507       C508 0.031       .   A
C507       C512 0.031       .   A
C508       C509 0.031       .   A
C508       H515 0.025       .   A
C509       C510 0.031       .   A
C509       H514 0.025       .   A
C510       C511 0.031       .   A
C510       C513 0.031       .   A
C511       C512 0.032       .   A
C511       F517 0.031       .   A
C512       F516 0.031       .   A
C513       C518 0.029       .   A
C518       C519 0.033       .   A
C519       C520 0.033       .   A
C493       C494 0.031       .   A
C493       C498 0.031       .   A
C494       C495 0.031       .   A
C494       H501 0.025       .   A
C495       C496 0.031       .   A
C495       H500 0.025       .   A
C496       C497 0.031       .   A
C496       C499 0.031       .   A
C497       C498 0.032       .   A
C497       F503 0.031       .   A
C498       F502 0.031       .   A
C499       C504 0.029       .   A
C504       C505 0.033       .   A
C505       C506 0.033       .   A
C479       C480 0.031       .   A
C479       C484 0.031       .   A
C480       C481 0.031       .   A
C480       H487 0.025       .   A
C481       C482 0.031       .   A
C481       H486 0.025       .   A
C482       C483 0.031       .   A
C482       C485 0.031       .   A
C483       C484 0.032       .   A
C483       F489 0.031       .   A
C484       F488 0.031       .   A
C485       C490 0.029       .   A
C490       C491 0.033       .   A
C491       C492 0.033       .   A
C465       C466 0.031       .   A
C465       C470 0.031       .   A
C466       C467 0.031       .   A
C466       H473 0.025       .   A
C467       C468 0.031       .   A
C467       H472 0.025       .   A
C468       C469 0.031       .   A
C468       C471 0.031       .   A
C469       C470 0.032       .   A
C469       F475 0.031       .   A
C470       F474 0.031       .   A
C471       C476 0.029       .   A
C476       C477 0.033       .   A
C477       C478 0.033       .   A
C451       C452 0.031       .   A
C451       C456 0.031       .   A
C452       C453 0.031       .   A
C452       H459 0.025       .   A
C453       C454 0.031       .   A
C453       H458 0.025       .   A
C454       C455 0.031       .   A
C454       C457 0.031       .   A
C455       C456 0.032       .   A
C455       F461 0.031       .   A
C456       F460 0.031       .   A
C457       C462 0.029       .   A
C462       C463 0.033       .   A
C463       C464 0.033       .   A
C437       C438 0.031       .   A
C437       C442 0.031       .   A
C438       C439 0.031       .   A
C438       H445 0.025       .   A
C439       C440 0.031       .   A
C439       H444 0.025       .   A
C440       C441 0.031       .   A
C440       C443 0.031       .   A
C441       C442 0.032       .   A
C441       F447 0.031       .   A
C442       F446 0.031       .   A
C443       C448 0.029       .   A
C448       C449 0.033       .   A
C449       C450 0.033       .   A
C423       C424 0.031       .   A
C423       C428 0.031       .   A
C424       C425 0.031       .   A
C424       H431 0.025       .   A
C425       C426 0.031       .   A
C425       H430 0.025       .   A
C426       C427 0.031       .   A
C426       C429 0.031       .   A
C427       C428 0.032       .   A
C427       F433 0.031       .   A
C428       F432 0.031       .   A
C429       C434 0.029       .   A
C434       C435 0.033       .   A
C435       C436 0.033       .   A
C409       C410 0.031       .   A
C409       C414 0.031       .   A
C410       C411 0.031       .   A
C410       H417 0.025       .   A
C411       C412 0.031       .   A
C411       H416 0.025       .   A
C412       C413 0.031       .   A
C412       C415 0.031       .   A
C413       C414 0.032       .   A
C413       F419 0.031       .   A
C414       F418 0.031       .   A
C415       C420 0.029       .   A
C420       C421 0.033       .   A
C421       C422 0.033       .   A
C395       C396 0.031       .   A
C395       C400 0.031       .   A
C396       C397 0.031       .   A
C396       H403 0.025       .   A
C397       C398 0.031       .   A
C397       H402 0.025       .   A
C398       C399 0.031       .   A
C398       C401 0.031       .   A
C399       C400 0.032       .   A
C399       F405 0.031       .   A
C400       F404 0.031       .   A
C401       C406 0.029       .   A
C406       C407 0.033       .   A
C407       C408 0.033       .   A
C381       C382 0.031       .   A
C381       C386 0.031       .   A
C382       C383 0.031       .   A
C382       H389 0.025       .   A
C383       C384 0.031       .   A
C383       H388 0.025       .   A
C384       C385 0.031       .   A
C384       C387 0.031       .   A
C385       C386 0.032       .   A
C385       F391 0.031       .   A
C386       F390 0.031       .   A
C387       C392 0.029       .   A
C392       C393 0.033       .   A
C393       C394 0.033       .   A
C367       C368 0.031       .   A
C367       C372 0.031       .   A
C368       C369 0.031       .   A
C368       H375 0.025       .   A
C369       C370 0.031       .   A
C369       H374 0.025       .   A
C370       C371 0.031       .   A
C370       C373 0.031       .   A
C371       C372 0.032       .   A
C371       F377 0.031       .   A
C372       F376 0.031       .   A
C373       C378 0.029       .   A
C378       C379 0.033       .   A
C379       C380 0.033       .   A
C353       C354 0.031       .   A
C353       C358 0.031       .   A
C354       C355 0.031       .   A
C354       H361 0.025       .   A
C355       C356 0.031       .   A
C355       H360 0.025       .   A
C356       C357 0.031       .   A
C356       C359 0.031       .   A
C357       C358 0.032       .   A
C357       F363 0.031       .   A
C358       F362 0.031       .   A
C359       C364 0.029       .   A
C364       C365 0.033       .   A
C365       C366 0.033       .   A
C339       C340 0.031       .   A
C339       C344 0.031       .   A
C340       C341 0.031       .   A
C340       H347 0.025       .   A
C341       C342 0.031       .   A
C341       H346 0.025       .   A
C342       C343 0.031       .   A
C342       C345 0.031       .   A
C343       C344 0.032       .   A
C343       F349 0.031       .   A
C344       F348 0.031       .   A
C345       C350 0.029       .   A
C350       C351 0.033       .   A
C351       C352 0.033       .   A
C325       C326 0.031       .   A
C325       C330 0.031       .   A
C326       C327 0.031       .   A
C326       H333 0.025       .   A
C327       C328 0.031       .   A
C327       H332 0.025       .   A
C328       C329 0.031       .   A
C328       C331 0.031       .   A
C329       C330 0.032       .   A
C329       F335 0.031       .   A
C330       F334 0.031       .   A
C331       C336 0.029       .   A
C336       C337 0.033       .   A
C337       C338 0.033       .   A
C311       C312 0.031       .   A
C311       C316 0.031       .   A
C312       C313 0.031       .   A
C312       H319 0.025       .   A
C313       C314 0.031       .   A
C313       H318 0.025       .   A
C314       C315 0.031       .   A
C314       C317 0.031       .   A
C315       C316 0.032       .   A
C315       F321 0.031       .   A
C316       F320 0.031       .   A
C317       C322 0.029       .   A
C322       C323 0.033       .   A
C323       C324 0.033       .   A
C297       C298 0.031       .   A
C297       C302 0.031       .   A
C298       C299 0.031       .   A
C298       H305 0.025       .   A
C299       C300 0.031       .   A
C299       H304 0.025       .   A
C300       C301 0.031       .   A
C300       C303 0.031       .   A
C301       C302 0.032       .   A
C301       F307 0.031       .   A
C302       F306 0.031       .   A
C303       C308 0.029       .   A
C308       C309 0.033       .   A
C309       C310 0.033       .   A
C283       C284 0.031       .   A
C283       C288 0.031       .   A
C284       C285 0.031       .   A
C284       H291 0.025       .   A
C285       C286 0.031       .   A
C285       H290 0.025       .   A
C286       C287 0.031       .   A
C286       C289 0.031       .   A
C287       C288 0.032       .   A
C287       F293 0.031       .   A
C288       F292 0.031       .   A
C289       C294 0.029       .   A
C294       C295 0.033       .   A
C295       C296 0.033       .   A
C269       C270 0.031       .   A
C269       C274 0.031       .   A
C270       C271 0.031       .   A
C270       H277 0.025       .   A
C271       C272 0.031       .   A
C271       H276 0.025       .   A
C272       C273 0.031       .   A
C272       C275 0.031       .   A
C273       C274 0.032       .   A
C273       F279 0.031       .   A
C274       F278 0.031       .   A
C275       C280 0.029       .   A
C280       C281 0.033       .   A
C281       C282 0.033       .   A
C255       C256 0.031       .   A
C255       C260 0.031       .   A
C256       C257 0.031       .   A
C256       H263 0.025       .   A
C257       C258 0.031       .   A
C257       H262 0.025       .   A
C258       C259 0.031       .   A
C258       C261 0.031       .   A
C259       C260 0.032       .   A
C259       F265 0.031       .   A
C260       F264 0.031       .   A
C261       C266 0.029       .   A
C266       C267 0.033       .   A
C267       C268 0.033       .   A
C241       C242 0.031       .   A
C241       C246 0.031       .   A
C242       C243 0.031       .   A
C242       H249 0.025       .   A
C243       C244 0.031       .   A
C243       H248 0.025       .   A
C244       C245 0.031       .   A
C244       C247 0.031       .   A
C245       C246 0.032       .   A
C245       F251 0.031       .   A
C246       F250 0.031       .   A
C247       C252 0.029       .   A
C252       C253 0.033       .   A
C253       C254 0.033       .   A
C227       C228 0.031       .   A
C227       C232 0.031       .   A
C228       C229 0.031       .   A
C228       H235 0.025       .   A
C229       C230 0.031       .   A
C229       H234 0.025       .   A
C230       C231 0.031       .   A
C230       C233 0.031       .   A
C231       C232 0.032       .   A
C231       F237 0.031       .   A
C232       F236 0.031       .   A
C233       C238 0.029       .   A
C238       C239 0.033       .   A
C239       C240 0.033       .   A
C213       C214 0.031       .   A
C213       C218 0.031       .   A
C214       C215 0.031       .   A
C214       H221 0.025       .   A
C215       C216 0.031       .   A
C215       H220 0.025       .   A
C216       C217 0.031       .   A
C216       C219 0.031       .   A
C217       C218 0.032       .   A
C217       F223 0.031       .   A
C218       F222 0.031       .   A
C219       C224 0.029       .   A
C224       C225 0.033       .   A
C225       C226 0.033       .   A
C199       C200 0.031       .   A
C199       C204 0.031       .   A
C200       C201 0.031       .   A
C200       H207 0.025       .   A
C201       C202 0.031       .   A
C201       H206 0.025       .   A
C202       C203 0.031       .   A
C202       C205 0.031       .   A
C203       C204 0.032       .   A
C203       F209 0.031       .   A
C204       F208 0.031       .   A
C205       C210 0.029       .   A
C210       C211 0.033       .   A
C211       C212 0.033       .   A
C185       C186 0.031       .   A
C185       C190 0.031       .   A
C186       C187 0.031       .   A
C186       H193 0.025       .   A
C187       C188 0.031       .   A
C187       H192 0.025       .   A
C188       C189 0.031       .   A
C188       C191 0.031       .   A
C189       C190 0.032       .   A
C189       F195 0.031       .   A
C190       F194 0.031       .   A
C191       C196 0.029       .   A
C196       C197 0.033       .   A
C197       C198 0.033       .   A
