data_pcu_v1-6c_Zn_1_Ch_1-6_fer_tobacco
_audit_creation_date              2021-04-07
_audit_creation_method            'tobacco_3.0'
_symmetry_space_group_name_H-M    'P1'
_symmetry_Int_Tables_number       1
_symmetry_cell_setting            triclinic
loop_
_symmetry_equiv_pos_as_xyz
  x,y,z
_cell_length_a                    42.29148577809971
_cell_length_b                    42.29148577809971
_cell_length_c                    42.29148577809971
_cell_angle_alpha                 90.0
_cell_angle_beta                  90.0
_cell_angle_gamma                 90.0
loop_
_atom_site_label
_atom_site_type_symbol
_atom_site_fract_x
_atom_site_fract_y
_atom_site_fract_z
_atom_site_charge
Zn1       Zn   -0.0265112464   -0.0265112464    0.0265112464          1.4972
Zn2       Zn    0.0265112464    0.0265112464    0.0265112464          1.4936
Zn3       Zn    0.0265112464   -0.0265112464   -0.0265112464          1.4911
Zn4       Zn   -0.0265112464    0.0265112464   -0.0265112464          1.4948
O5         O    0.0000000000    0.0000000000    0.0000000000         -2.2589
O6         O   -0.0194838272   -0.0194838272    0.0708558696         -1.1652
O7         O    0.0708558696    0.0194838272    0.0194838272         -1.1634
O8         O    0.0194838272   -0.0708558696   -0.0194838272         -1.1586
O9         O    0.0194838272    0.0194838272    0.0708558696         -1.1654
O10        O   -0.0194838272   -0.0708558696    0.0194838272         -1.1613
O11        O    0.0708558696   -0.0194838272   -0.0194838272         -1.1672
O12        O   -0.0194838272    0.0194838272   -0.0708558696         -1.1611
O13        O    0.0194838272    0.0708558696    0.0194838272         -1.1687
O14        O    0.0194838272   -0.0194838272   -0.0708558696         -1.1626
O15        O   -0.0194838272    0.0708558696   -0.0194838272         -1.1672
O16        O   -0.0708558696    0.0194838272   -0.0194838272         -1.1663
O17        O   -0.0708558696   -0.0194838272    0.0194838272         -1.1642
C18        C   -0.0000000000   -0.0000000000    0.0847168156          0.3537
C19        C    0.0847168156   -0.0000000000   -0.0000000000          0.3586
C20        C   -0.0000000000   -0.0847168156    0.0000000000          0.3482
C21        C    0.0000000000    0.0000000000   -0.0847168156          0.3519
C22        C    0.0000000000    0.0847168156   -0.0000000000          0.3633
C23        C   -0.0847168156    0.0000000000    0.0000000000          0.3538
Zn24      Zn    0.9734887536    0.0265112464    0.4734887536          1.4972
Zn25      Zn    1.0265112464   -0.0265112464    0.4734887536          1.4936
Zn26      Zn    1.0265112464    0.0265112464    0.5265112464          1.4911
Zn27      Zn    0.9734887536   -0.0265112464    0.5265112464          1.4948
O28        O    1.0000000000    0.0000000000    0.5000000000         -2.2589
O29        O    0.9805161728    0.0194838272    0.4291441304         -1.1652
O30        O    1.0708558696   -0.0194838272    0.4805161728         -1.1634
O31        O    1.0194838272    0.0708558696    0.5194838272         -1.1586
O32        O    1.0194838272   -0.0194838272    0.4291441304         -1.1654
O33        O    0.9805161728    0.0708558696    0.4805161728         -1.1613
O34        O    1.0708558696    0.0194838272    0.5194838272         -1.1672
O35        O    0.9805161728   -0.0194838272    0.5708558696         -1.1611
O36        O    1.0194838272   -0.0708558696    0.4805161728         -1.1687
O37        O    1.0194838272    0.0194838272    0.5708558696         -1.1626
O38        O    0.9805161728   -0.0708558696    0.5194838272         -1.1672
O39        O    0.9291441304   -0.0194838272    0.5194838272         -1.1663
O40        O    0.9291441304    0.0194838272    0.4805161728         -1.1642
C41        C    1.0000000000    0.0000000000    0.4152831844          0.3537
C42        C    1.0847168156    0.0000000000    0.5000000000          0.3586
C43        C    1.0000000000    0.0847168156    0.5000000000          0.3482
C44        C    1.0000000000    0.0000000000    0.5847168156          0.3519
C45        C    1.0000000000   -0.0847168156    0.5000000000          0.3633
C46        C    0.9152831844    0.0000000000    0.5000000000          0.3538
Zn47      Zn    1.0265112464    0.4734887536   -0.0265112464          1.4972
Zn48      Zn    0.9734887536    0.4734887536    0.0265112464          1.4936
Zn49      Zn    1.0265112464    0.5265112464    0.0265112464          1.4911
Zn50      Zn    0.9734887536    0.5265112464   -0.0265112464          1.4948
O51        O    1.0000000000    0.5000000000    0.0000000000         -2.2589
O52        O    1.0194838272    0.4291441304   -0.0194838272         -1.1652
O53        O    0.9805161728    0.4805161728    0.0708558696         -1.1634
O54        O    1.0708558696    0.5194838272    0.0194838272         -1.1586
O55        O    0.9805161728    0.4291441304    0.0194838272         -1.1654
O56        O    1.0708558696    0.4805161728   -0.0194838272         -1.1613
O57        O    1.0194838272    0.5194838272    0.0708558696         -1.1672
O58        O    0.9805161728    0.5708558696   -0.0194838272         -1.1611
O59        O    0.9291441304    0.4805161728    0.0194838272         -1.1687
O60        O    1.0194838272    0.5708558696    0.0194838272         -1.1626
O61        O    0.9291441304    0.5194838272   -0.0194838272         -1.1672
O62        O    0.9805161728    0.5194838272   -0.0708558696         -1.1663
O63        O    1.0194838272    0.4805161728   -0.0708558696         -1.1642
C64        C    1.0000000000    0.4152831844    0.0000000000          0.3537
C65        C    1.0000000000    0.5000000000    0.0847168156          0.3586
C66        C    1.0847168156    0.5000000000    0.0000000000          0.3482
C67        C    1.0000000000    0.5847168156    0.0000000000          0.3519
C68        C    0.9152831844    0.5000000000    0.0000000000          0.3633
C69        C    1.0000000000    0.5000000000   -0.0847168156          0.3538
Zn70      Zn    0.9734887536    0.4734887536    0.5265112464          1.4972
Zn71      Zn    1.0265112464    0.4734887536    0.4734887536          1.4936
Zn72      Zn    0.9734887536    0.5265112464    0.4734887536          1.4911
Zn73      Zn    1.0265112464    0.5265112464    0.5265112464          1.4948
O74        O    1.0000000000    0.5000000000    0.5000000000         -2.2589
O75        O    0.9805161728    0.4291441304    0.5194838272         -1.1652
O76        O    1.0194838272    0.4805161728    0.4291441304         -1.1634
O77        O    0.9291441304    0.5194838272    0.4805161728         -1.1586
O78        O    1.0194838272    0.4291441304    0.4805161728         -1.1654
O79        O    0.9291441304    0.4805161728    0.5194838272         -1.1613
O80        O    0.9805161728    0.5194838272    0.4291441304         -1.1672
O81        O    1.0194838272    0.5708558696    0.5194838272         -1.1611
O82        O    1.0708558696    0.4805161728    0.4805161728         -1.1687
O83        O    0.9805161728    0.5708558696    0.4805161728         -1.1626
O84        O    1.0708558696    0.5194838272    0.5194838272         -1.1672
O85        O    1.0194838272    0.5194838272    0.5708558696         -1.1663
O86        O    0.9805161728    0.4805161728    0.5708558696         -1.1642
C87        C    1.0000000000    0.4152831844    0.5000000000          0.3537
C88        C    1.0000000000    0.5000000000    0.4152831844          0.3586
C89        C    0.9152831844    0.5000000000    0.5000000000          0.3482
C90        C    1.0000000000    0.5847168156    0.5000000000          0.3519
C91        C    1.0847168156    0.5000000000    0.5000000000          0.3633
C92        C    1.0000000000    0.5000000000    0.5847168156          0.3538
Zn93      Zn    0.4734887536    0.9734887536   -0.0265112464          1.4972
Zn94      Zn    0.4734887536    1.0265112464    0.0265112464          1.4936
Zn95      Zn    0.5265112464    0.9734887536    0.0265112464          1.4911
Zn96      Zn    0.5265112464    1.0265112464   -0.0265112464          1.4948
O97        O    0.5000000000    1.0000000000    0.0000000000         -2.2589
O98        O    0.4291441304    0.9805161728   -0.0194838272         -1.1652
O99        O    0.4805161728    1.0194838272    0.0708558696         -1.1634
O100       O    0.5194838272    0.9291441304    0.0194838272         -1.1586
O101       O    0.4291441304    1.0194838272    0.0194838272         -1.1654
O102       O    0.4805161728    0.9291441304   -0.0194838272         -1.1613
O103       O    0.5194838272    0.9805161728    0.0708558696         -1.1672
O104       O    0.5708558696    1.0194838272   -0.0194838272         -1.1611
O105       O    0.4805161728    1.0708558696    0.0194838272         -1.1687
O106       O    0.5708558696    0.9805161728    0.0194838272         -1.1626
O107       O    0.5194838272    1.0708558696   -0.0194838272         -1.1672
O108       O    0.5194838272    1.0194838272   -0.0708558696         -1.1663
O109       O    0.4805161728    0.9805161728   -0.0708558696         -1.1642
C110       C    0.4152831844    1.0000000000    0.0000000000          0.3537
C111       C    0.5000000000    1.0000000000    0.0847168156          0.3586
C112       C    0.5000000000    0.9152831844    0.0000000000          0.3482
C113       C    0.5847168156    1.0000000000    0.0000000000          0.3519
C114       C    0.5000000000    1.0847168156    0.0000000000          0.3633
C115       C    0.5000000000    1.0000000000   -0.0847168156          0.3538
Zn116     Zn    0.4734887536    1.0265112464    0.5265112464          1.4972
Zn117     Zn    0.4734887536    0.9734887536    0.4734887536          1.4936
Zn118     Zn    0.5265112464    1.0265112464    0.4734887536          1.4911
Zn119     Zn    0.5265112464    0.9734887536    0.5265112464          1.4948
O120       O    0.5000000000    1.0000000000    0.5000000000         -2.2589
O121       O    0.4291441304    1.0194838272    0.5194838272         -1.1652
O122       O    0.4805161728    0.9805161728    0.4291441304         -1.1634
O123       O    0.5194838272    1.0708558696    0.4805161728         -1.1586
O124       O    0.4291441304    0.9805161728    0.4805161728         -1.1654
O125       O    0.4805161728    1.0708558696    0.5194838272         -1.1613
O126       O    0.5194838272    1.0194838272    0.4291441304         -1.1672
O127       O    0.5708558696    0.9805161728    0.5194838272         -1.1611
O128       O    0.4805161728    0.9291441304    0.4805161728         -1.1687
O129       O    0.5708558696    1.0194838272    0.4805161728         -1.1626
O130       O    0.5194838272    0.9291441304    0.5194838272         -1.1672
O131       O    0.5194838272    0.9805161728    0.5708558696         -1.1663
O132       O    0.4805161728    1.0194838272    0.5708558696         -1.1642
C133       C    0.4152831844    1.0000000000    0.5000000000          0.3537
C134       C    0.5000000000    1.0000000000    0.4152831844          0.3586
C135       C    0.5000000000    1.0847168156    0.5000000000          0.3482
C136       C    0.5847168156    1.0000000000    0.5000000000          0.3519
C137       C    0.5000000000    0.9152831844    0.5000000000          0.3633
C138       C    0.5000000000    1.0000000000    0.5847168156          0.3538
Zn139     Zn    0.4734887536    0.5265112464   -0.0265112464          1.4972
Zn140     Zn    0.5265112464    0.5265112464    0.0265112464          1.4936
Zn141     Zn    0.4734887536    0.4734887536    0.0265112464          1.4911
Zn142     Zn    0.5265112464    0.4734887536   -0.0265112464          1.4948
O143       O    0.5000000000    0.5000000000    0.0000000000         -2.2589
O144       O    0.4805161728    0.5708558696   -0.0194838272         -1.1652
O145       O    0.5194838272    0.5194838272    0.0708558696         -1.1634
O146       O    0.4291441304    0.4805161728    0.0194838272         -1.1586
O147       O    0.5194838272    0.5708558696    0.0194838272         -1.1654
O148       O    0.4291441304    0.5194838272   -0.0194838272         -1.1613
O149       O    0.4805161728    0.4805161728    0.0708558696         -1.1672
O150       O    0.5194838272    0.4291441304   -0.0194838272         -1.1611
O151       O    0.5708558696    0.5194838272    0.0194838272         -1.1687
O152       O    0.4805161728    0.4291441304    0.0194838272         -1.1626
O153       O    0.5708558696    0.4805161728   -0.0194838272         -1.1672
O154       O    0.5194838272    0.4805161728   -0.0708558696         -1.1663
O155       O    0.4805161728    0.5194838272   -0.0708558696         -1.1642
C156       C    0.5000000000    0.5847168156    0.0000000000          0.3537
C157       C    0.5000000000    0.5000000000    0.0847168156          0.3586
C158       C    0.4152831844    0.5000000000    0.0000000000          0.3482
C159       C    0.5000000000    0.4152831844    0.0000000000          0.3519
C160       C    0.5847168156    0.5000000000    0.0000000000          0.3633
C161       C    0.5000000000    0.5000000000   -0.0847168156          0.3538
Zn162     Zn    0.4734887536    0.5265112464    0.4734887536          1.4972
Zn163     Zn    0.4734887536    0.4734887536    0.5265112464          1.4936
Zn164     Zn    0.5265112464    0.4734887536    0.4734887536          1.4911
Zn165     Zn    0.5265112464    0.5265112464    0.5265112464          1.4948
O166       O    0.5000000000    0.5000000000    0.5000000000         -2.2589
O167       O    0.4291441304    0.5194838272    0.4805161728         -1.1652
O168       O    0.4805161728    0.4291441304    0.5194838272         -1.1634
O169       O    0.5194838272    0.4805161728    0.4291441304         -1.1586
O170       O    0.4291441304    0.4805161728    0.5194838272         -1.1654
O171       O    0.4805161728    0.5194838272    0.4291441304         -1.1613
O172       O    0.5194838272    0.4291441304    0.4805161728         -1.1672
O173       O    0.5708558696    0.5194838272    0.5194838272         -1.1611
O174       O    0.4805161728    0.4805161728    0.5708558696         -1.1687
O175       O    0.5708558696    0.4805161728    0.4805161728         -1.1626
O176       O    0.5194838272    0.5194838272    0.5708558696         -1.1672
O177       O    0.5194838272    0.5708558696    0.5194838272         -1.1663
O178       O    0.4805161728    0.5708558696    0.4805161728         -1.1642
C179       C    0.4152831844    0.5000000000    0.5000000000          0.3537
C180       C    0.5000000000    0.4152831844    0.5000000000          0.3586
C181       C    0.5000000000    0.5000000000    0.4152831844          0.3482
C182       C    0.5847168156    0.5000000000    0.5000000000          0.3519
C183       C    0.5000000000    0.5000000000    0.5847168156          0.3633
C184       C    0.5000000000    0.5847168156    0.5000000000          0.3538
C1404      C    0.5000000000    0.5000000000   -0.1211307644          0.5651
C1405      C    0.5153676742    0.4794609849   -0.1392629836          0.5588
C1406      C    0.5194288396    0.4850301052   -0.1698218799          0.5613
C1407      C    0.5068885986    0.5103244803   -0.1846837387           0.572
C1408      C    0.4897608700    0.5307253301   -0.1655968318         -0.4204
C1409      C    0.4894964757    0.5271752910   -0.1337500422          0.5731
C1410      C    0.5118924435    0.5127091215   -0.2169120720          0.5746
H1411      H    0.5335846648    0.4675322681   -0.1821804342          0.5543
H1412      H    0.5242445996    0.4573224558   -0.1296172840          0.5521
C1413      C    0.4768417602    0.5496576259   -0.1149773010          0.5765
C1414      C    0.4688357195    0.5526984901   -0.1759640751         -0.4029
C1415      C    0.4551642909    0.5741176078   -0.1574187928         -0.3983
C1416      C    0.4606390429    0.5736828511   -0.1266974153         -0.4102
O1417      O    0.4584476124    0.5508529579   -0.2050096382         -0.3867
H1418      H    0.4390654382    0.5916285117   -0.1672251585         -0.3845
H1419      H    0.4499052993    0.5911018661   -0.1111402963          -0.407
H1420      H    0.4786280565    0.5483865444   -0.0893458482          0.5692
H1421      H    0.4750618934    0.5361587314   -0.2121186842         -0.3975
C1422      C    0.5129332608    0.4860320965   -0.2342054849         -0.4182
C1423      C    0.5133060115    0.4860078651   -0.2655694355         -0.4113
C1424      C    0.5115819082    0.5124129405   -0.2831542261         -0.4099
C1425      C    0.5099829247    0.5397904218   -0.2661927677         -0.4166
C1426      C    0.5136425143    0.5399297214   -0.2341139214          0.5727
C1427      C    0.5113049640    0.5094687615   -0.3155802170         -0.4017
H1428      H    0.5152085046    0.4627641877   -0.2763678525         -0.4069
H1429      H    0.5116171583    0.4627053779   -0.2236210793         -0.4158
C1430      C    0.5185018652    0.5679977591   -0.2197912631          0.5607
C1431      C    0.5026227546    0.5676210225   -0.2800062085         -0.4113
C1432      C    0.5042756759    0.5949053112   -0.2645410016         -0.4206
C1433      C    0.5138758181    0.5952241883   -0.2347577999           0.564
H1434      H    0.4952731319    0.5688468831   -0.3045074513         -0.3993
H1435      H    0.4988058532    0.6169282394   -0.2766406745         -0.4164
H1436      H    0.5164388057    0.6174930748   -0.2221741219          0.5554
H1437      H    0.5247997417    0.5693166743   -0.1949680877          0.5492
C1438      C    0.4946924536    0.4846565370   -0.3268170409         -0.3805
C1439      C    0.4894753569    0.4798527741   -0.3572713857         -0.3681
C1440      C    0.5000000000    0.5000000000   -0.3788692356         -0.3756
C1441      C    0.5164894300    0.5254586123   -0.3691253720         -0.3965
C1442      C    0.5241474465    0.5294502486   -0.3378816868         -0.4111
H1443      H    0.4760296377    0.4590311446   -0.3642143100         -0.3513
H1444      H    0.4829831008    0.4678015236   -0.3113956264          -0.371
C1445      C    0.5459389165    0.5524610815   -0.3313549492          0.5644
C1446      C    0.5251225116    0.5473275568   -0.3905189419         -0.4027
C1447      C    0.5429454506    0.5716862213   -0.3825922389          0.5759
C1448      C    0.5541989711    0.5735378499   -0.3535424784          0.5589
H1449      H    0.5175509057    0.5462953265   -0.4150155643         -0.3901
H1450      H    0.5494887232    0.5892061639   -0.4002376487          0.5714
H1451      H    0.5706429869    0.5926232072   -0.3487689153          0.5402
C1452      C    0.5769825087    0.5817031319   -0.2915013750          0.5231
H1453      H    0.5605577545    0.6016262430   -0.2930751059          0.5349
H1454      H    0.5981190987    0.5865555387   -0.3055178507          0.5068
H1455      H    0.5837373451    0.5782061691   -0.2667985206           0.512
O1456      O    0.5617133053    0.5530561814   -0.3028323368          0.5437
C1351      C    0.5000000000    0.5000000000    0.3788692356          0.5651
C1352      C    0.5235659982    0.5101321410    0.3607370164          0.5588
C1353      C    0.5191024201    0.5153842486    0.3301781201          0.5613
C1354      C    0.4915751560    0.5091142574    0.3153162613           0.572
C1355      C    0.4677314313    0.4972386288    0.3344031682         -0.4204
C1356      C    0.4711209143    0.4961504711    0.3662499578          0.5731
C1357      C    0.4904282519    0.5145373181    0.2830879280          0.5746
H1358      H    0.5394280467    0.5250501987    0.3178195658          0.5543
H1359      H    0.5471674886    0.5135794480    0.3703827160          0.5521
C1360      C    0.4463007420    0.4891108508    0.3850226990          0.5765
C1361      C    0.4414700653    0.4820392098    0.3240359249         -0.4029
C1362      C    0.4174455367    0.4737622183    0.3425812072         -0.3983
C1363      C    0.4191499231    0.4789830410    0.3733025847         -0.4102
O1364      O    0.4408323156    0.4715077316    0.2949903618         -0.3867
H1365      H    0.3966523179    0.4622102979    0.3327748415         -0.3845
H1366      H    0.3997020827    0.4726256173    0.3888597037          -0.407
H1367      H    0.4479546949    0.4905499277    0.4106541518          0.5692
H1368      H    0.4590078029    0.4842201777    0.2878813158         -0.3975
C1369      C    0.5166075738    0.5093037657    0.2657945151         -0.4182
C1370      C    0.5167183976    0.5096604846    0.2344305645         -0.4113
C1371      C    0.4906435014    0.5141660729    0.2168457739         -0.4099
C1372      C    0.4636525153    0.5190209571    0.2338072323         -0.4166
C1373      C    0.4643738453    0.5226114562    0.2658860786          0.5727
C1374      C    0.4934410234    0.5132075539    0.1844197830         -0.4017
H1375      H    0.5397615166    0.5060684535    0.2236321475         -0.4069
H1376      H    0.5389779103    0.5025631450    0.2763789207         -0.4158
C1377      C    0.4382234755    0.5339068617    0.2802087369          0.5607
C1378      C    0.4348722322    0.5183808431    0.2199937915         -0.4113
C1379      C    0.4087331628    0.5263754419    0.2354589984         -0.4206
C1380      C    0.4106706679    0.5357834431    0.2652422001           0.564
H1381      H    0.4319597952    0.5115224616    0.1954925487         -0.3993
H1382      H    0.3860417085    0.5262134882    0.2233593255         -0.4164
H1383      H    0.3896206779    0.5434886447    0.2778258781          0.5554
H1384      H    0.4384156301    0.5403384916    0.3050319123          0.5492
C1385      C    0.5136744911    0.4912478460    0.1731829591         -0.3805
C1386      C    0.5171233628    0.4850511114    0.1427286143         -0.3681
C1387      C    0.5000000000    0.5000000000    0.1211307644         -0.3756
C1388      C    0.4791092934    0.5219913760    0.1308746280         -0.3965
C1389      C    0.4770214303    0.5303710660    0.1621183132         -0.4111
H1390      H    0.5342185245    0.4671044386    0.1357856900         -0.3513
H1391      H    0.5273197779    0.4759179221    0.1886043736          -0.371
C1392      C    0.4597517554    0.5569440772    0.1686450508          0.5644
C1393      C    0.4598692201    0.5355043480    0.1094810581         -0.4027
C1394      C    0.4403600850    0.5585346614    0.1174077611          0.5759
C1395      C    0.4411945125    0.5699089299    0.1464575216          0.5589
H1396      H    0.4591001508    0.5279015032    0.0849844357         -0.3901
H1397      H    0.4248589000    0.5689977427    0.0997623513          0.5714
H1398      H    0.4264893118    0.5903640904    0.1512310847          0.5402
C1399      C    0.4385900770    0.5939708985    0.2084986250          0.5231
H1400      H    0.4153753900    0.5826668632    0.2069248941          0.5349
H1401      H    0.4388208774    0.6156561012    0.1944821493          0.5068
H1402      H    0.4435712535    0.5997193282    0.2332014794           0.512
O1403      O    0.4628661870    0.5724194060    0.1971676632          0.5437
C1298      C    0.5000000000    0.6211307644    0.5000000000          0.5651
C1299      C    0.4757817083    0.6392629836    0.5084552290          0.5588
C1300      C    0.4755230597    0.6698218799    0.5015674670          0.5613
C1301      C    0.5000516532    0.6846837387    0.4875885127           0.572
C1302      C    0.5256527920    0.6655968318    0.4802308332         -0.4204
C1303      C    0.5238895224    0.6337500422    0.4833233341          0.5731
C1304      C    0.4972325920    0.7169120720    0.4828158959          0.5746
H1305      H    0.4540084339    0.6821804342    0.5081767458          0.5543
H1306      H    0.4560543712    0.6296172840    0.5218621841          0.5521
C1307      C    0.5469426345    0.6149773010    0.4717409669          0.5765
C1308      C    0.5552820740    0.6759640751    0.4736896308         -0.4029
C1309      C    0.5785847995    0.6574187928    0.4635570324         -0.3983
C1310      C    0.5738005595    0.6266974153    0.4608601877         -0.4102
O1311      O    0.5628685893    0.7050096382    0.4810219937         -0.3867
H1312      H    0.6017185117    0.6672251585    0.4580220374         -0.3845
H1313      H    0.5924324648    0.6111402963    0.4524051631          -0.407
H1314      H    0.5447509966    0.5893458482    0.4717977670          0.5692
H1315      H    0.5408803470    0.7121186842    0.4839326342         -0.3975
C1316      C    0.4814708842    0.7342054849    0.5043638780         -0.4182
C1317      C    0.4811481458    0.7655694355    0.5041758083         -0.4113
C1318      C    0.4973247804    0.7831542261    0.4832350101         -0.4099
C1319      C    0.5139406847    0.7661927677    0.4614177014         -0.4166
C1320      C    0.5109827599    0.7341139214    0.4592583771          0.5727
C1321      C    0.4959102761    0.8155802170    0.4858319439         -0.4017
H1322      H    0.4665890792    0.7763678525    0.5223945239         -0.4069
H1323      H    0.4695353457    0.7236210793    0.5244489681         -0.4158
C1324      C    0.5226269724    0.7197912631    0.4332614476          0.5607
C1325      C    0.5355886886    0.7800062085    0.4424419704         -0.4113
C1326      C    0.5494550127    0.7645410016    0.4188858753         -0.4206
C1327      C    0.5416695423    0.7347577999    0.4132599653           0.564
H1328      H    0.5423699877    0.8045074513    0.4455296344         -0.3993
H1329      H    0.5662915147    0.7766406745    0.4036720485         -0.4164
H1330      H    0.5519799913    0.7221741219    0.3933560247          0.5554
H1331      H    0.5181393040    0.6949680877    0.4286501985          0.5492
C1332      C    0.4958338728    0.8268170409    0.5156918861         -0.3805
C1333      C    0.4974788241    0.8572713857    0.5225903186         -0.3681
C1334      C    0.5000000000    0.8788692356    0.5000000000         -0.3756
C1335      C    0.5005394897    0.8691253720    0.4696726000         -0.3965
C1336      C    0.4964161870    0.8378816868    0.4620846654         -0.4111
H1337      H    0.4970041183    0.8642143100    0.5473714057         -0.3513
H1338      H    0.4961340454    0.8113956264    0.5362128587          -0.371
C1339      C    0.4911904925    0.8313549492    0.4308267270          0.5644
C1340      C    0.5055912909    0.8905189419    0.4467104542         -0.4027
C1341      C    0.5044103142    0.8825922389    0.4165507629          0.5759
C1342      C    0.4961093220    0.8535424784    0.4087300353          0.5589
H1343      H    0.5112956542    0.9150155643    0.4517952311         -0.3901
H1344      H    0.5087668752    0.9002376487    0.3983633172          0.5714
H1345      H    0.4931272108    0.8487689153    0.3837147693          0.5402
C1346      C    0.4817698847    0.7915013750    0.3892328058          0.5231
H1347      H    0.5065210862    0.7930751059    0.3818788320          0.5349
H1348      H    0.4669464889    0.8055178507    0.3734034590          0.5068
H1349      H    0.4742136324    0.7667985206    0.3883612473           0.512
O1350      O    0.4784375950    0.8028323368    0.4215235505          0.5437
C1245      C    0.5000000000    1.1211307644    0.5000000000          0.5651
C1246      C    0.5234508182    1.1392629836    0.5103959452          0.5588
C1247      C    0.5189285854    1.1698218799    0.5155976349          0.5613
C1248      C    0.4914734122    1.1846837387    0.5090191454           0.572
C1249      C    0.4677644493    1.1655968318    0.4968767060         -0.4204
C1250      C    0.4711659295    1.1337500422    0.4958266513          0.5731
C1251      C    0.4902657263    1.2169120720    0.5144289950          0.5746
H1252      H    0.5391444674    1.1821804342    0.5254910572          0.5543
H1253      H    0.5470121392    1.1296172840    0.5141078756          0.5521
C1254      C    0.4464263138    1.1149773010    0.4885089585          0.5765
C1255      C    0.4416752946    1.1759640751    0.4813835561         -0.4029
C1256      C    0.4177451576    1.1574187928    0.4728374982         -0.3983
C1257      C    0.4193908521    1.1266974153    0.4780771177         -0.4102
O1258      O    0.4411557624    1.2050096382    0.4708455845         -0.3867
H1259      H    0.3970828761    1.1672251585    0.4610529773         -0.3845
H1260      H    0.4000155750    1.1111402963    0.4715018634          -0.407
H1261      H    0.4480640143    1.0893458482    0.4899665044          0.5692
H1262      H    0.4591874547    1.2121186842    0.4837611837         -0.3975
C1263      C    0.5165021274    1.2342054849    0.5094895392         -0.4182
C1264      C    0.5166089414    1.2655694355    0.5098474793         -0.4113
C1265      C    0.4904851281    1.2831542261    0.5140601885         -0.4099
C1266      C    0.4634413631    1.2661927677    0.5186118919         -0.4166
C1267      C    0.4641223575    1.2341139214    0.5222102592          0.5727
C1268      C    0.4932932299    1.3155802170    0.5131331218         -0.4017
H1269      H    0.5396909170    1.2763678525    0.5065142491         -0.4069
H1270      H    0.5389466943    1.2236210793    0.5030003681         -0.4158
C1271      C    0.4378468844    1.2197912631    0.5332115112          0.5607
C1272      C    0.4346700750    1.2800062085    0.5176488647         -0.4113
C1273      C    0.4084429411    1.2645410016    0.5253496446         -0.4206
C1274      C    0.4102747539    1.2347577999    0.5347787949           0.564
H1275      H    0.4318347816    1.3045074513    0.5107582335         -0.3993
H1276      H    0.3857547329    1.2766406745    0.5249330725         -0.4164
H1277      H    0.3891396264    1.2221741219    0.5422473022          0.5554
H1278      H    0.4379668554    1.1949680877    0.5396448923          0.5492
C1279      C    0.5137718410    1.3268170409    0.4914018432         -0.3805
C1280      C    0.5172900313    1.3572713857    0.4852441998         -0.3681
C1281      C    0.5000000000    1.3788692356    0.5000000000         -0.3756
C1282      C    0.4788638359    1.3691253720    0.5217555696         -0.3965
C1283      C    0.4766820729    1.3378816868    0.5301113033         -0.4111
H1284      H    0.5345855025    1.3642143100    0.4674904876         -0.3513
H1285      H    0.5275882911    1.3113956264    0.4762260030          -0.371
C1286      C    0.4591153003    1.3313549492    0.5564888525          0.5644
C1287      C    0.4594733402    1.3905189419    0.5350517913         -0.4027
C1288      C    0.4397070024    1.3825922389    0.5578617360          0.5759
C1289      C    0.4404137428    1.3535424784    0.5692446517          0.5589
H1290      H    0.4587896335    1.4150155643    0.5274407952         -0.3901
H1291      H    0.4240893835    1.4002376487    0.5681502143          0.5714
H1292      H    0.4254799335    1.3487689153    0.5895335122          0.5402
C1293      C    0.4375394636    1.2915013750    0.5932758800          0.5231
H1294      H    0.4144530847    1.2930751059    0.5817120564          0.5349
H1295      H    0.4375269123    1.3055178507    0.6149623073          0.5068
H1296      H    0.4424558213    1.2667985206    0.5990798434           0.512
O1297      O    0.4620558819    1.3028323368    0.5719981551          0.5437
C1192      C    0.5000000000    0.6211307644    0.0000000000          0.5651
C1193      C    0.4748377321    0.6392629836   -0.0049876675          0.5588
C1194      C    0.4781061496    0.6698218799   -0.0110560785          0.5613
C1195      C    0.5063358505    0.6846837387   -0.0106726137           0.572
C1196      C    0.5321338004    0.6655968318   -0.0040378915         -0.4204
C1197      C    0.5290462742    0.6337500422   -0.0022659252          0.5731
C1198      C    0.5063250155    0.7169120720   -0.0162156147          0.5746
H1199      H    0.4562101659    0.6821804342   -0.0162644935          0.5543
H1200      H    0.4510366944    0.6296172840   -0.0034304654          0.5521
C1201      C    0.5547892802    0.6149773010   -0.0005644988          0.5765
C1202      C    0.5609901719    0.6759640751    0.0053424873         -0.4029
C1203      C    0.5862134654    0.6574187928    0.0084201533         -0.3983
C1204      C    0.5834564322    0.6266974153    0.0036703438         -0.4102
O1205      O    0.5638130651    0.7050096382    0.0155086091         -0.3867
H1206      H    0.6089605645    0.6672251585    0.0153753165         -0.3845
H1207      H    0.6038030888    0.6111402963    0.0058264742          -0.407
H1208      H    0.5528712800    0.5893458482   -0.0016264678          0.5692
H1209      H    0.5433836429    0.7121186842    0.0068718658         -0.3975
C1210      C    0.4818157318    0.7342054849   -0.0056306264         -0.4182
C1211      C    0.4816328605    0.7655694355   -0.0059563385         -0.4113
C1212      C    0.5061920356    0.7831542261   -0.0158076052         -0.4099
C1213      C    0.5315741636    0.7661927677   -0.0261917667         -0.4166
C1214      C    0.5301189613    0.7341139214   -0.0295524790          0.5727
C1215      C    0.5036563484    0.8155802170   -0.0142860341         -0.4017
H1216      H    0.4598478523    0.7763678525    0.0023684099         -0.4069
H1217      H    0.4613461682    0.7236210793    0.0056328052         -0.4158
C1218      C    0.5533340835    0.7197912631   -0.0460596330          0.5607
C1219      C    0.5598536173    0.7800062085   -0.0315757190         -0.4113
C1220      C    0.5837469690    0.7645410016   -0.0448524770         -0.4206
C1221      C    0.5798875818    0.7347577999   -0.0536484729           0.564
H1222      H    0.5641340262    0.8045074513   -0.0254767202         -0.3993
H1223      H    0.6059719797    0.7766406745   -0.0494325670         -0.4164
H1224      H    0.5988644820    0.7221741219   -0.0655795026          0.5554
H1225      H    0.5518030999    0.6949680877   -0.0523093429          0.5492
C1226      C    0.4884546227    0.8268170409    0.0114147347         -0.3805
C1227      C    0.4863758000    0.8572713857    0.0181950542         -0.3681
C1228      C    0.5000000000    0.8788692356    0.0000000000         -0.3756
C1229      C    0.5158378620    0.8691253720   -0.0258689847         -0.3965
C1230      C    0.5161298324    0.8378816868   -0.0344999250         -0.4111
H1231      H    0.4734051824    0.8642143100    0.0393159135         -0.3513
H1232      H    0.4783113884    0.8113956264    0.0292561253          -0.371
C1233      C    0.5274697473    0.8313549492   -0.0640933858          0.5644
C1234      C    0.5318319577    0.8905189419   -0.0431017945         -0.4027
C1235      C    0.5461017538    0.8825922389   -0.0696983095          0.5759
C1236      C    0.5429105257    0.8535424784   -0.0806475704          0.5589
H1237      H    0.5341717125    0.9150155643   -0.0358271630         -0.3901
H1238      H    0.5590762740    0.9002376487   -0.0831677056          0.5714
H1239      H    0.5530200450    0.8487689153   -0.1037225383          0.5402
C1240      C    0.5404328765    0.7915013750   -0.1047229244          0.5231
H1241      H    0.5654962956    0.7930751059   -0.0985158371          0.5349
H1242      H    0.5356788187    0.8055178507   -0.1258818521          0.5068
H1243      H    0.5343611184    0.7667985206   -0.1093044436           0.512
O1244      O    0.5211923894    0.8028323368   -0.0785771790          0.5437
C1139      C    0.5000000000    1.3788692356    0.0000000000          0.5651
C1140      C    0.4774842993    1.3607370164    0.0122906376          0.5588
C1141      C    0.4824192808    1.3301781201    0.0171025106          0.5613
C1142      C    0.5092399222    1.3153162613    0.0082868283           0.572
C1143      C    0.5318691587    1.3344031682   -0.0057656239         -0.4204
C1144      C    0.5283927997    1.3662499578   -0.0065321812          0.5731
C1145      C    0.5108887316    1.2830879280    0.0135789360          0.5746
H1146      H    0.4630861860    1.3178195658    0.0286261009          0.5543
H1147      H    0.4543083889    1.3703827160    0.0179290284          0.5521
C1148      C    0.5524462602    1.3850226990   -0.0158610741          0.5765
C1149      C    0.5565947557    1.3240359249   -0.0233533053         -0.4029
C1150      C    0.5797403915    1.3425812072   -0.0338397779         -0.3983
C1151      C    0.5785314903    1.3733025847   -0.0284824949         -0.4102
O1152      O    0.5562452704    1.2949903618   -0.0338982860         -0.3867
H1153      H    0.5993627378    1.3327748415   -0.0472847895         -0.3845
H1154      H    0.5972999109    1.3888597037   -0.0366299930          -0.407
H1155      H    0.5509340685    1.4106541518   -0.0142736929          0.5692
H1156      H    0.5393376754    1.2878813158   -0.0195425256         -0.3975
C1157      C    0.4843348230    1.2657945151    0.0108154423         -0.4182
C1158      C    0.4842578291    1.2344305645    0.0111809587         -0.4113
C1159      C    0.5106397220    1.2168457739    0.0132294370         -0.4099
C1160      C    0.5379663446    1.2338072323    0.0155400492         -0.4166
C1161      C    0.5375837992    1.2658860786    0.0191822545          0.5727
C1162      C    0.5077648502    1.1844197830    0.0125366166         -0.4017
H1163      H    0.4609798347    1.2236321475    0.0097586386         -0.4069
H1164      H    0.4614323470    1.2763789207    0.0061954294         -0.4158
C1165      C    0.5646755216    1.2802087369    0.0279837659          0.5607
C1166      C    0.5665607782    1.2199937915    0.0122124663         -0.4113
C1167      C    0.5933327028    1.2354589984    0.0177286798         -0.4206
C1168      C    0.5922831053    1.2652422001    0.0272765988           0.564
H1169      H    0.5688193677    1.1954925487    0.0051118705         -0.3993
H1170      H    0.6159096641    1.2233593255    0.0154463242         -0.4164
H1171      H    0.6139611813    1.2778258781    0.0329803901          0.5554
H1172      H    0.5650854127    1.3050319123    0.0344051968          0.5492
C1173      C    0.4855672644    1.1731829591   -0.0074355933         -0.3805
C1174      C    0.4815542462    1.1427286143   -0.0132828081         -0.3681
C1175      C    0.5000000000    1.1211307644    0.0000000000         -0.3756
C1176      C    0.5228549073    1.1308746280    0.0199423031         -0.3965
C1177      C    0.5257169303    1.1621183132    0.0280901372         -0.4111
H1178      H    0.4628563486    1.1357856900   -0.0295529108         -0.3513
H1179      H    0.4705487401    1.1886043736   -0.0214228857          -0.371
C1180      C    0.5453949345    1.1686450508    0.0529324952          0.5644
C1181      C    0.5432738796    1.1094810581    0.0315976197         -0.4027
C1182      C    0.5648503805    1.1174077611    0.0527034553          0.5759
C1183      C    0.5650828299    1.1464575216    0.0641059208          0.5589
H1184      H    0.5433288964    1.0849844357    0.0239561742         -0.3901
H1185      H    0.5812617429    1.0997623513    0.0616717321          0.5714
H1186      H    0.5816357149    1.1512310847    0.0830969323          0.5402
C1187      C    0.5699250835    1.2084986250    0.0878190817          0.5231
H1188      H    0.5919814670    1.2069248941    0.0743945200          0.5349
H1189      H    0.5717223442    1.1944821493    0.1094309104          0.5068
H1190      H    0.5655030584    1.2332014794    0.0940079634           0.512
O1191      O    0.5437407144    1.1971676632    0.0686311907          0.5437
C1086      C    0.5000000000    1.0000000000   -0.3788692356          0.5651
C1087      C    0.4846323258    0.9794609849   -0.3607370164          0.5588
C1088      C    0.4805711604    0.9850301052   -0.3301781201          0.5613
C1089      C    0.4931114014    1.0103244803   -0.3153162613           0.572
C1090      C    0.5102391300    1.0307253301   -0.3344031682         -0.4204
C1091      C    0.5105035243    1.0271752910   -0.3662499578          0.5731
C1092      C    0.4881075565    1.0127091215   -0.2830879280          0.5746
H1093      H    0.4664153352    0.9675322681   -0.3178195658          0.5543
H1094      H    0.4757554004    0.9573224558   -0.3703827160          0.5521
C1095      C    0.5231582398    1.0496576259   -0.3850226990          0.5765
C1096      C    0.5311642805    1.0526984901   -0.3240359249         -0.4029
C1097      C    0.5448357091    1.0741176078   -0.3425812072         -0.3983
C1098      C    0.5393609571    1.0736828511   -0.3733025847         -0.4102
O1099      O    0.5415523876    1.0508529579   -0.2949903618         -0.3867
H1100      H    0.5609345618    1.0916285117   -0.3327748415         -0.3845
H1101      H    0.5500947007    1.0911018661   -0.3888597037          -0.407
H1102      H    0.5213719435    1.0483865444   -0.4106541518          0.5692
H1103      H    0.5249381066    1.0361587314   -0.2878813158         -0.3975
C1104      C    0.4870667392    0.9860320965   -0.2657945151         -0.4182
C1105      C    0.4866939885    0.9860078651   -0.2344305645         -0.4113
C1106      C    0.4884180918    1.0124129405   -0.2168457739         -0.4099
C1107      C    0.4900170753    1.0397904218   -0.2338072323         -0.4166
C1108      C    0.4863574857    1.0399297214   -0.2658860786          0.5727
C1109      C    0.4886950360    1.0094687615   -0.1844197830         -0.4017
H1110      H    0.4847914954    0.9627641877   -0.2236321475         -0.4069
H1111      H    0.4883828417    0.9627053779   -0.2763789207         -0.4158
C1112      C    0.4814981348    1.0679977591   -0.2802087369          0.5607
C1113      C    0.4973772454    1.0676210225   -0.2199937915         -0.4113
C1114      C    0.4957243241    1.0949053112   -0.2354589984         -0.4206
C1115      C    0.4861241819    1.0952241883   -0.2652422001           0.564
H1116      H    0.5047268681    1.0688468831   -0.1954925487         -0.3993
H1117      H    0.5011941468    1.1169282394   -0.2233593255         -0.4164
H1118      H    0.4835611943    1.1174930748   -0.2778258781          0.5554
H1119      H    0.4752002583    1.0693166743   -0.3050319123          0.5492
C1120      C    0.5053075464    0.9846565370   -0.1731829591         -0.3805
C1121      C    0.5105246431    0.9798527741   -0.1427286143         -0.3681
C1122      C    0.5000000000    1.0000000000   -0.1211307644         -0.3756
C1123      C    0.4835105700    1.0254586123   -0.1308746280         -0.3965
C1124      C    0.4758525535    1.0294502486   -0.1621183132         -0.4111
H1125      H    0.5239703623    0.9590311446   -0.1357856900         -0.3513
H1126      H    0.5170168992    0.9678015236   -0.1886043736          -0.371
C1127      C    0.4540610835    1.0524610815   -0.1686450508          0.5644
C1128      C    0.4748774884    1.0473275568   -0.1094810581         -0.4027
C1129      C    0.4570545494    1.0716862213   -0.1174077611          0.5759
C1130      C    0.4458010289    1.0735378499   -0.1464575216          0.5589
H1131      H    0.4824490943    1.0462953265   -0.0849844357         -0.3901
H1132      H    0.4505112768    1.0892061639   -0.0997623513          0.5714
H1133      H    0.4293570131    1.0926232072   -0.1512310847          0.5402
C1134      C    0.4230174913    1.0817031319   -0.2084986250          0.5231
H1135      H    0.4394422455    1.1016262430   -0.2069248941          0.5349
H1136      H    0.4018809013    1.0865555387   -0.1944821493          0.5068
H1137      H    0.4162626549    1.0782061691   -0.2332014794           0.512
O1138      O    0.4382866947    1.0530561814   -0.1971676632          0.5437
C1033      C    0.5000000000    1.0000000000    0.3788692356          0.5651
C1034      C    0.5235659982    1.0101321410    0.3607370164          0.5588
C1035      C    0.5191024201    1.0153842486    0.3301781201          0.5613
C1036      C    0.4915751560    1.0091142574    0.3153162613           0.572
C1037      C    0.4677314313    0.9972386288    0.3344031682         -0.4204
C1038      C    0.4711209143    0.9961504711    0.3662499578          0.5731
C1039      C    0.4904282519    1.0145373181    0.2830879280          0.5746
H1040      H    0.5394280467    1.0250501987    0.3178195658          0.5543
H1041      H    0.5471674886    1.0135794480    0.3703827160          0.5521
C1042      C    0.4463007420    0.9891108508    0.3850226990          0.5765
C1043      C    0.4414700653    0.9820392098    0.3240359249         -0.4029
C1044      C    0.4174455367    0.9737622183    0.3425812072         -0.3983
C1045      C    0.4191499231    0.9789830410    0.3733025847         -0.4102
O1046      O    0.4408323156    0.9715077316    0.2949903618         -0.3867
H1047      H    0.3966523179    0.9622102979    0.3327748415         -0.3845
H1048      H    0.3997020827    0.9726256173    0.3888597037          -0.407
H1049      H    0.4479546949    0.9905499277    0.4106541518          0.5692
H1050      H    0.4590078029    0.9842201777    0.2878813158         -0.3975
C1051      C    0.5166075738    1.0093037657    0.2657945151         -0.4182
C1052      C    0.5167183976    1.0096604846    0.2344305645         -0.4113
C1053      C    0.4906435014    1.0141660729    0.2168457739         -0.4099
C1054      C    0.4636525153    1.0190209571    0.2338072323         -0.4166
C1055      C    0.4643738453    1.0226114562    0.2658860786          0.5727
C1056      C    0.4934410234    1.0132075539    0.1844197830         -0.4017
H1057      H    0.5397615166    1.0060684535    0.2236321475         -0.4069
H1058      H    0.5389779103    1.0025631450    0.2763789207         -0.4158
C1059      C    0.4382234755    1.0339068617    0.2802087369          0.5607
C1060      C    0.4348722322    1.0183808431    0.2199937915         -0.4113
C1061      C    0.4087331628    1.0263754419    0.2354589984         -0.4206
C1062      C    0.4106706679    1.0357834431    0.2652422001           0.564
H1063      H    0.4319597952    1.0115224616    0.1954925487         -0.3993
H1064      H    0.3860417085    1.0262134882    0.2233593255         -0.4164
H1065      H    0.3896206779    1.0434886447    0.2778258781          0.5554
H1066      H    0.4384156301    1.0403384916    0.3050319123          0.5492
C1067      C    0.5136744911    0.9912478460    0.1731829591         -0.3805
C1068      C    0.5171233628    0.9850511114    0.1427286143         -0.3681
C1069      C    0.5000000000    1.0000000000    0.1211307644         -0.3756
C1070      C    0.4791092934    1.0219913760    0.1308746280         -0.3965
C1071      C    0.4770214303    1.0303710660    0.1621183132         -0.4111
H1072      H    0.5342185245    0.9671044386    0.1357856900         -0.3513
H1073      H    0.5273197779    0.9759179221    0.1886043736          -0.371
C1074      C    0.4597517554    1.0569440772    0.1686450508          0.5644
C1075      C    0.4598692201    1.0355043480    0.1094810581         -0.4027
C1076      C    0.4403600850    1.0585346614    0.1174077611          0.5759
C1077      C    0.4411945125    1.0699089299    0.1464575216          0.5589
H1078      H    0.4591001508    1.0279015032    0.0849844357         -0.3901
H1079      H    0.4248589000    1.0689977427    0.0997623513          0.5714
H1080      H    0.4264893118    1.0903640904    0.1512310847          0.5402
C1081      C    0.4385900770    1.0939708985    0.2084986250          0.5231
H1082      H    0.4153753900    1.0826668632    0.2069248941          0.5349
H1083      H    0.4388208774    1.1156561012    0.1944821493          0.5068
H1084      H    0.4435712535    1.0997193282    0.2332014794           0.512
O1085      O    0.4628661870    1.0724194060    0.1971676632          0.5437
C980       C    0.8788692356    0.5000000000    0.5000000000          0.5651
C981       C    0.8607370164    0.4745391746    0.5031245673          0.5588
C982       C    0.8301781201    0.4757477285    0.4963387319          0.5613
C983       C    0.8153162613    0.5026837104    0.4878820223           0.572
C984       C    0.8344031682    0.5292630449    0.4861234047         -0.4204
C985       C    0.8662499578    0.5268838086    0.4887714070          0.5731
C986       C    0.7830879280    0.5009413889    0.4826199607          0.5746
H987       H    0.8178195658    0.4533206579    0.4982329849          0.5543
H988       H    0.8703827160    0.4524165030    0.5120409386          0.5521
C989       C    0.8850226990    0.5518694367    0.4823436860          0.5765
C990       C    0.8240359249    0.5596055963    0.4860172916         -0.4029
C991       C    0.8425812072    0.5845275708    0.4810592933         -0.3983
C992       C    0.8733025847    0.5804244105    0.4774088140         -0.4102
O993       O    0.7949903618    0.5654637612    0.4947922937         -0.3867
H994       H    0.8327748415    0.6083089478    0.4805583746         -0.3845
H995       H    0.8888597037    0.6004259817    0.4730992334          -0.407
H996       H    0.9106541518    0.5497156413    0.4819342130          0.5692
H997       H    0.7878813158    0.5433585628    0.4929716260         -0.3975
C998       C    0.7657945151    0.4809668599    0.5003333780         -0.4182
C999       C    0.7344305645    0.4806913698    0.5000811173         -0.4113
C1000      C    0.7168457739    0.5009425589    0.4830490923         -0.4099
C1001      C    0.7338072323    0.5218089790    0.4652537069         -0.4166
C1002      C    0.7658860786    0.5193765165    0.4625159840          0.5727
C1003      C    0.6844197830    0.4990092882    0.4852868037         -0.4017
H1004      H    0.7236321475    0.4625984439    0.5147962134         -0.4069
H1005      H    0.7763789207    0.4650417649    0.5174289703         -0.4158
C1006      C    0.7802087369    0.5362711791    0.4395813289          0.5607
C1007      C    0.7199937915    0.5469900698    0.4513028248         -0.4113
C1008      C    0.7354589984    0.5655384072    0.4312248833         -0.4206
C1009      C    0.7652422001    0.5591237736    0.4240752757           0.564
H1010      H    0.6954925487    0.5529619091    0.4557589243         -0.3993
H1011      H    0.7233593255    0.5852194020    0.4199294519         -0.4164
H1012      H    0.7778258781    0.5734223418    0.4068119284          0.5554
H1013      H    0.8050319123    0.5328640007    0.4341229480          0.5492
C1014      C    0.6731829591    0.4925995101    0.5144507666         -0.3805
C1015      C    0.6427286143    0.4927434355    0.5215411489         -0.3681
C1016      C    0.6211307644    0.5000000000    0.5000000000         -0.3756
C1017      C    0.6308746280    0.5069614986    0.4704774700         -0.3965
C1018      C    0.6621183132    0.5045419275    0.4621874729         -0.4111
H1019      H    0.6357856900    0.4870219571    0.5456573738         -0.3513
H1020      H    0.6886043736    0.4885390998    0.5345682587          -0.371
C1021      C    0.6686450508    0.5060669117    0.4305324413          0.5644
C1022      C    0.6094810581    0.5167699652    0.4491098586         -0.4027
C1023      C    0.6174077611    0.5220145830    0.4193862035          0.5759
C1024      C    0.6464575216    0.5155618182    0.4099823703          0.5589
H1025      H    0.5849844357    0.5212656759    0.4552891225         -0.3901
H1026      H    0.5997623513    0.5301306318    0.4025370921          0.5714
H1027      H    0.6512310847    0.5179548586    0.3849038960          0.5402
C1028      C    0.7084986250    0.5056853731    0.3878867317          0.5231
H1029      H    0.7069248941    0.5314333331    0.3859514118          0.5349
H1030      H    0.6944821493    0.4945578053    0.3692727981          0.5068
H1031      H    0.7332014794    0.4984860516    0.3854318726           0.512
O1032      O    0.6971676632    0.4955781083    0.4187353871          0.5437
C927       C    1.1211307644    0.5000000000    0.5000000000          0.5651
C928       C    1.1392629836    0.5031245673    0.4745391746          0.5588
C929       C    1.1698218799    0.4963387319    0.4757477285          0.5613
C930       C    1.1846837387    0.4878820223    0.5026837104           0.572
C931       C    1.1655968318    0.4861234047    0.5292630449         -0.4204
C932       C    1.1337500422    0.4887714070    0.5268838086          0.5731
C933       C    1.2169120720    0.4826199607    0.5009413889          0.5746
H934       H    1.1821804342    0.4982329849    0.4533206579          0.5543
H935       H    1.1296172840    0.5120409386    0.4524165030          0.5521
C936       C    1.1149773010    0.4823436860    0.5518694367          0.5765
C937       C    1.1759640751    0.4860172916    0.5596055963         -0.4029
C938       C    1.1574187928    0.4810592933    0.5845275708         -0.3983
C939       C    1.1266974153    0.4774088140    0.5804244105         -0.4102
O940       O    1.2050096382    0.4947922937    0.5654637612         -0.3867
H941       H    1.1672251585    0.4805583746    0.6083089478         -0.3845
H942       H    1.1111402963    0.4730992334    0.6004259817          -0.407
H943       H    1.0893458482    0.4819342130    0.5497156413          0.5692
H944       H    1.2121186842    0.4929716260    0.5433585628         -0.3975
C945       C    1.2342054849    0.5003333780    0.4809668599         -0.4182
C946       C    1.2655694355    0.5000811173    0.4806913698         -0.4113
C947       C    1.2831542261    0.4830490923    0.5009425589         -0.4099
C948       C    1.2661927677    0.4652537069    0.5218089790         -0.4166
C949       C    1.2341139214    0.4625159840    0.5193765165          0.5727
C950       C    1.3155802170    0.4852868037    0.4990092882         -0.4017
H951       H    1.2763678525    0.5147962134    0.4625984439         -0.4069
H952       H    1.2236210793    0.5174289703    0.4650417649         -0.4158
C953       C    1.2197912631    0.4395813289    0.5362711791          0.5607
C954       C    1.2800062085    0.4513028248    0.5469900698         -0.4113
C955       C    1.2645410016    0.4312248833    0.5655384072         -0.4206
C956       C    1.2347577999    0.4240752757    0.5591237736           0.564
H957       H    1.3045074513    0.4557589243    0.5529619091         -0.3993
H958       H    1.2766406745    0.4199294519    0.5852194020         -0.4164
H959       H    1.2221741219    0.4068119284    0.5734223418          0.5554
H960       H    1.1949680877    0.4341229480    0.5328640007          0.5492
C961       C    1.3268170409    0.5144507666    0.4925995101         -0.3805
C962       C    1.3572713857    0.5215411489    0.4927434355         -0.3681
C963       C    1.3788692356    0.5000000000    0.5000000000         -0.3756
C964       C    1.3691253720    0.4704774700    0.5069614986         -0.3965
C965       C    1.3378816868    0.4621874729    0.5045419275         -0.4111
H966       H    1.3642143100    0.5456573738    0.4870219571         -0.3513
H967       H    1.3113956264    0.5345682587    0.4885390998          -0.371
C968       C    1.3313549492    0.4305324413    0.5060669117          0.5644
C969       C    1.3905189419    0.4491098586    0.5167699652         -0.4027
C970       C    1.3825922389    0.4193862035    0.5220145830          0.5759
C971       C    1.3535424784    0.4099823703    0.5155618182          0.5589
H972       H    1.4150155643    0.4552891225    0.5212656759         -0.3901
H973       H    1.4002376487    0.4025370921    0.5301306318          0.5714
H974       H    1.3487689153    0.3849038960    0.5179548586          0.5402
C975       C    1.2915013750    0.3878867317    0.5056853731          0.5231
H976       H    1.2930751059    0.3859514118    0.5314333331          0.5349
H977       H    1.3055178507    0.3692727981    0.4945578053          0.5068
H978       H    1.2667985206    0.3854318726    0.4984860516           0.512
O979       O    1.3028323368    0.4187353871    0.4955781083          0.5437
C874       C    0.6211307644    0.5000000000    0.0000000000          0.5651
C875       C    0.6392629836    0.4839255550    0.0199907171          0.5588
C876       C    0.6698218799    0.4903293649    0.0225401059          0.5613
C877       C    0.6846837387    0.5117127321    0.0041060432           0.572
C878       C    0.6655968318    0.5272158525   -0.0175551436         -0.4204
C879       C    0.6337500422    0.5237115143   -0.0169288084          0.5731
C880       C    0.7169120720    0.5152663320    0.0083600889          0.5746
H881       H    0.6821804342    0.4768994191    0.0406010651          0.5543
H882       H    0.6296172840    0.4646883965    0.0340919938          0.5521
C883       C    0.6149773010    0.5423426449   -0.0347747653          0.5765
C884       C    0.6759640751    0.5432980117   -0.0432853950         -0.4029
C885       C    0.6574187928    0.5606465713   -0.0618518714         -0.3983
C886       C    0.6266974153    0.5615863158   -0.0564408823         -0.4102
O887       O    0.7050096382    0.5389282372   -0.0528887189         -0.3867
H888       H    0.6672251585    0.5736061965   -0.0817981223         -0.3845
H889       H    0.6111402963    0.5757905384   -0.0711675722          -0.407
H890       H    0.5893458482    0.5415554761   -0.0327285816          0.5692
H891       H    0.7121186842    0.5288250051   -0.0331433567         -0.3975
C892       C    0.7342054849    0.4896853054    0.0159993324         -0.4182
C893       C    0.7655694355    0.4897544890    0.0163664072         -0.4113
C894       C    0.7831542261    0.5149022573    0.0081329216         -0.4099
C895       C    0.7661927677    0.5410230128   -0.0002210815         -0.4166
C896       C    0.7341139214    0.5420676025    0.0032890230          0.5727
C897       C    0.8155802170    0.5119816442    0.0085965025         -0.4017
H898       H    0.7763678525    0.4677132375    0.0239868567         -0.4069
H899       H    0.7236210793    0.4667635745    0.0205228464         -0.4158
C900       C    0.7197912631    0.5704625850    0.0010190022          0.5607
C901       C    0.7800062085    0.5661506111   -0.0142680827         -0.4113
C902       C    0.7645410016    0.5929894230   -0.0194490802         -0.4206
C903       C    0.7347577999    0.5956845938   -0.0102295104           0.564
H904       H    0.8045074513    0.5655111053   -0.0216917422         -0.3993
H905       H    0.7766406745    0.6129615105   -0.0302214545         -0.4164
H906       H    0.7221741219    0.6178916312   -0.0132823293          0.5554
H907       H    0.6949680877    0.5733055645    0.0067913720          0.5492
C908       C    0.8268170409    0.4838188119   -0.0013270482         -0.3805
C909       C    0.8572713857    0.4778690087   -0.0051863328         -0.3681
C910       C    0.8788692356    0.5000000000    0.0000000000         -0.3756
C911       C    0.8691253720    0.5287583387    0.0096436611         -0.3965
C912       C    0.8378816868    0.5345282427    0.0160691248         -0.4111
H913       H    0.8642143100    0.4543586903   -0.0130344249         -0.3513
H914       H    0.8113956264    0.4645822213   -0.0084792509          -0.371
C915       C    0.8313549492    0.5622335529    0.0314568596          0.5644
C916       C    0.8905189419    0.5520868265    0.0125698342         -0.4027
C917       C    0.8825922389    0.5801112098    0.0237785641          0.5759
C918       C    0.8535424784    0.5847020046    0.0342186242          0.5589
H919       H    0.9150155643    0.5492049238    0.0054924509         -0.3901
H920       H    0.9002376487    0.5987077305    0.0257615478          0.5714
H921       H    0.8487689153    0.6072758302    0.0454024929          0.5402
C922       C    0.7915013750    0.5982743029    0.0542574400          0.5231
H923       H    0.7930751059    0.6134894169    0.0333959152          0.5349
H924       H    0.8055178507    0.6082283228    0.0735244785          0.5068
H925       H    0.7667985206    0.5965661414    0.0616695077           0.512
O926       O    0.8028323368    0.5667310060    0.0465882311          0.5437
C821       C    1.1211307644    0.5000000000    0.0000000000          0.5651
C822       C    1.1392629836    0.5155727685    0.0203839504          0.5588
C823       C    1.1698218799    0.5195779095    0.0147744041          0.5613
C824       C    1.1846837387    0.5067847684   -0.0103930074           0.572
C825       C    1.1655968318    0.4894534189   -0.0306211580         -0.4204
C826       C    1.1337500422    0.4892246205   -0.0270686472          0.5731
C827       C    1.2169120720    0.5117644602   -0.0128276832          0.5746
H828       H    1.1821804342    0.5339084076    0.0321294758          0.5543
H829       H    1.1296172840    0.5246711465    0.0424323923          0.5521
C830       C    1.1149773010    0.4763451962   -0.0494230123          0.5765
C831       C    1.1759640751    0.4683090785   -0.0523834777         -0.4029
C832       C    1.1574187928    0.4544236490   -0.0736644883         -0.3983
C833       C    1.1266974153    0.4599024836   -0.0732846278         -0.4102
O834       O    1.2050096382    0.4579399914   -0.0504339163         -0.3867
H835       H    1.1672251585    0.4381500901   -0.0910131508         -0.3845
H836       H    1.1111402963    0.4489946853   -0.0905951815          -0.407
H837       H    1.0893458482    0.4781441431   -0.0481698989          0.5692
H838       H    1.2121186842    0.4747007207   -0.0359069559         -0.3975
C839       C    1.2342054849    0.5130726139    0.0138375695         -0.4182
C840       C    1.2655694355    0.5134455888    0.0138580634         -0.4113
C841       C    1.2831542261    0.5114569092   -0.0125284045         -0.4099
C842       C    1.2661927677    0.5095835967   -0.0398884836         -0.4166
C843       C    1.2341139214    0.5132416062   -0.0400644570          0.5727
C844       C    1.3155802170    0.5112094890   -0.0095815975         -0.4017
H845       H    1.2763678525    0.5155809619    0.0370815042         -0.4069
H846       H    1.2236210793    0.5119903854    0.0371763078         -0.4158
C847       C    1.2197912631    0.5178193820   -0.0681797908          0.5607
C848       C    1.2800062085    0.5019448451   -0.0676439140         -0.4113
C849       C    1.2645410016    0.5033242081   -0.0949433997         -0.4206
C850       C    1.2347577999    0.5129206719   -0.0953584847           0.564
H851       H    1.3045074513    0.4945833047   -0.0687960464         -0.3993
H852       H    1.2766406745    0.4976339204   -0.1169103966         -0.4164
H853       H    1.2221741219    0.5152603256   -0.1176519419          0.5554
H854       H    1.1949680877    0.5241037224   -0.0695617645          0.5492
C855       C    1.3268170409    0.4948465105    0.0153958907         -0.3805
C856       C    1.3572713857    0.4896778249    0.0202517042         -0.3681
C857       C    1.3788692356    0.5000000000    0.0000000000         -0.3756
C858       C    1.3691253720    0.5162334255   -0.0256226099         -0.3965
C859       C    1.3378816868    0.5238510483   -0.0296908034         -0.4111
H860       H    1.3642143100    0.4764414801    0.0412070567         -0.3513
H861       H    1.3113956264    0.4833066867    0.0323674224          -0.371
C862       C    1.3313549492    0.5454107820   -0.0529189003          0.5644
C863       C    1.3905189419    0.5246468770   -0.0475769868         -0.4027
C864       C    1.3825922389    0.5422247694   -0.0721130702          0.5759
C865       C    1.3535424784    0.5534591654   -0.0740774019          0.5589
H866       H    1.4150155643    0.5170859977   -0.0464689168         -0.3901
H867       H    1.4002376487    0.5485921078   -0.0896977172          0.5714
H868       H    1.3487689153    0.5697110592   -0.0933266218          0.5402
C869       C    1.2915013750    0.5761597164   -0.0824706372          0.5231
H870       H    1.2930751059    0.5595360943   -0.1022281192          0.5349
H871       H    1.3055178507    0.5972466081   -0.0875346561          0.5068
H872       H    1.2667985206    0.5829492642   -0.0790415550           0.512
O873       O    1.3028323368    0.5611784136   -0.0536720797          0.5437
C768       C    1.0000000000    0.5000000000   -0.3788692356          0.5651
C769       C    1.0235659982    0.4898678590   -0.3607370164          0.5588
C770       C    1.0191024201    0.4846157514   -0.3301781201          0.5613
C771       C    0.9915751560    0.4908857426   -0.3153162613           0.572
C772       C    0.9677314313    0.5027613712   -0.3344031682         -0.4204
C773       C    0.9711209143    0.5038495289   -0.3662499578          0.5731
C774       C    0.9904282519    0.4854626819   -0.2830879280          0.5746
H775       H    1.0394280467    0.4749498013   -0.3178195658          0.5543
H776       H    1.0471674886    0.4864205520   -0.3703827160          0.5521
C777       C    0.9463007420    0.5108891492   -0.3850226990          0.5765
C778       C    0.9414700653    0.5179607902   -0.3240359249         -0.4029
C779       C    0.9174455367    0.5262377817   -0.3425812072         -0.3983
C780       C    0.9191499231    0.5210169590   -0.3733025847         -0.4102
O781       O    0.9408323156    0.5284922684   -0.2949903618         -0.3867
H782       H    0.8966523179    0.5377897021   -0.3327748415         -0.3845
H783       H    0.8997020827    0.5273743827   -0.3888597037          -0.407
H784       H    0.9479546949    0.5094500723   -0.4106541518          0.5692
H785       H    0.9590078029    0.5157798223   -0.2878813158         -0.3975
C786       C    1.0166075738    0.4906962343   -0.2657945151         -0.4182
C787       C    1.0167183976    0.4903395154   -0.2344305645         -0.4113
C788       C    0.9906435014    0.4858339271   -0.2168457739         -0.4099
C789       C    0.9636525153    0.4809790429   -0.2338072323         -0.4166
C790       C    0.9643738453    0.4773885438   -0.2658860786          0.5727
C791       C    0.9934410234    0.4867924461   -0.1844197830         -0.4017
H792       H    1.0397615166    0.4939315465   -0.2236321475         -0.4069
H793       H    1.0389779103    0.4974368550   -0.2763789207         -0.4158
C794       C    0.9382234755    0.4660931383   -0.2802087369          0.5607
C795       C    0.9348722322    0.4816191569   -0.2199937915         -0.4113
C796       C    0.9087331628    0.4736245581   -0.2354589984         -0.4206
C797       C    0.9106706679    0.4642165569   -0.2652422001           0.564
H798       H    0.9319597952    0.4884775384   -0.1954925487         -0.3993
H799       H    0.8860417085    0.4737865118   -0.2233593255         -0.4164
H800       H    0.8896206779    0.4565113553   -0.2778258781          0.5554
H801       H    0.9384156301    0.4596615084   -0.3050319123          0.5492
C802       C    1.0136744911    0.5087521540   -0.1731829591         -0.3805
C803       C    1.0171233628    0.5149488886   -0.1427286143         -0.3681
C804       C    1.0000000000    0.5000000000   -0.1211307644         -0.3756
C805       C    0.9791092934    0.4780086240   -0.1308746280         -0.3965
C806       C    0.9770214303    0.4696289340   -0.1621183132         -0.4111
H807       H    1.0342185245    0.5328955614   -0.1357856900         -0.3513
H808       H    1.0273197779    0.5240820779   -0.1886043736          -0.371
C809       C    0.9597517554    0.4430559228   -0.1686450508          0.5644
C810       C    0.9598692201    0.4644956520   -0.1094810581         -0.4027
C811       C    0.9403600850    0.4414653386   -0.1174077611          0.5759
C812       C    0.9411945125    0.4300910701   -0.1464575216          0.5589
H813       H    0.9591001508    0.4720984968   -0.0849844357         -0.3901
H814       H    0.9248589000    0.4310022573   -0.0997623513          0.5714
H815       H    0.9264893118    0.4096359096   -0.1512310847          0.5402
C816       C    0.9385900770    0.4060291015   -0.2084986250          0.5231
H817       H    0.9153753900    0.4173331368   -0.2069248941          0.5349
H818       H    0.9388208774    0.3843438988   -0.1944821493          0.5068
H819       H    0.9435712535    0.4002806718   -0.2332014794           0.512
O820       O    0.9628661870    0.4275805940   -0.1971676632          0.5453
C715       C    1.0000000000    0.5000000000    0.1211307644          0.5651
C716       C    0.9764340018    0.5101321410    0.1392629836          0.5588
C717       C    0.9808975799    0.5153842486    0.1698218799          0.5613
C718       C    1.0084248440    0.5091142574    0.1846837387           0.572
C719       C    1.0322685687    0.4972386288    0.1655968318         -0.4204
C720       C    1.0288790857    0.4961504711    0.1337500422          0.5731
C721       C    1.0095717481    0.5145373181    0.2169120720          0.5746
H722       H    0.9605719533    0.5250501987    0.1821804342          0.5543
H723       H    0.9528325114    0.5135794480    0.1296172840          0.5521
C724       C    1.0536992580    0.4891108508    0.1149773010          0.5765
C725       C    1.0585299347    0.4820392098    0.1759640751         -0.4029
C726       C    1.0825544633    0.4737622183    0.1574187928         -0.3983
C727       C    1.0808500769    0.4789830410    0.1266974153         -0.4102
O728       O    1.0591676844    0.4715077316    0.2050096382         -0.3867
H729       H    1.1033476821    0.4622102979    0.1672251585         -0.3845
H730       H    1.1002979173    0.4726256173    0.1111402963          -0.407
H731       H    1.0520453051    0.4905499277    0.0893458482          0.5692
H732       H    1.0409921971    0.4842201777    0.2121186842         -0.3975
C733       C    0.9833924262    0.5093037657    0.2342054849         -0.4182
C734       C    0.9832816024    0.5096604846    0.2655694355         -0.4113
C735       C    1.0093564986    0.5141660729    0.2831542261         -0.4099
C736       C    1.0363474847    0.5190209571    0.2661927677         -0.4166
C737       C    1.0356261547    0.5226114562    0.2341139214          0.5727
C738       C    1.0065589766    0.5132075539    0.3155802170         -0.4017
H739       H    0.9602384834    0.5060684535    0.2763678525         -0.4069
H740       H    0.9610220897    0.5025631450    0.2236210793         -0.4158
C741       C    1.0617765245    0.5339068617    0.2197912631          0.5607
C742       C    1.0651277678    0.5183808431    0.2800062085         -0.4113
C743       C    1.0912668372    0.5263754419    0.2645410016         -0.4206
C744       C    1.0893293321    0.5357834431    0.2347577999           0.564
H745       H    1.0680402048    0.5115224616    0.3045074513         -0.3993
H746       H    1.1139582915    0.5262134882    0.2766406745         -0.4164
H747       H    1.1103793221    0.5434886447    0.2221741219          0.5554
H748       H    1.0615843699    0.5403384916    0.1949680877          0.5492
C749       C    0.9863255089    0.4912478460    0.3268170409         -0.3805
C750       C    0.9828766372    0.4850511114    0.3572713857         -0.3681
C751       C    1.0000000000    0.5000000000    0.3788692356         -0.3756
C752       C    1.0208907066    0.5219913760    0.3691253720         -0.3965
C753       C    1.0229785697    0.5303710660    0.3378816868         -0.4111
H754       H    0.9657814755    0.4671044386    0.3642143100         -0.3513
H755       H    0.9726802221    0.4759179221    0.3113956264          -0.371
C756       C    1.0402482446    0.5569440772    0.3313549492          0.5644
C757       C    1.0401307799    0.5355043480    0.3905189419         -0.4027
C758       C    1.0596399150    0.5585346614    0.3825922389          0.5759
C759       C    1.0588054875    0.5699089299    0.3535424784          0.5589
H760       H    1.0408998492    0.5279015032    0.4150155643         -0.3901
H761       H    1.0751411000    0.5689977427    0.4002376487          0.5714
H762       H    1.0735106882    0.5903640904    0.3487689153          0.5402
C763       C    1.0614099230    0.5939708985    0.2915013750          0.5231
H764       H    1.0846246100    0.5826668632    0.2930751059          0.5349
H765       H    1.0611791226    0.6156561012    0.3055178507          0.5068
H766       H    1.0564287465    0.5997193282    0.2667985206           0.512
O767       O    1.0371338130    0.5724194060    0.3028323368          0.5437
C662       C    1.0000000000   -0.1211307644    0.5000000000          0.5651
C663       C    1.0235659982   -0.1392629836    0.4898678590          0.5588
C664       C    1.0191024201   -0.1698218799    0.4846157514          0.5613
C665       C    0.9915751560   -0.1846837387    0.4908857426           0.572
C666       C    0.9677314313   -0.1655968318    0.5027613712         -0.4204
C667       C    0.9711209143   -0.1337500422    0.5038495289          0.5731
C668       C    0.9904282519   -0.2169120720    0.4854626819          0.5746
H669       H    1.0394280467   -0.1821804342    0.4749498013          0.5543
H670       H    1.0471674886   -0.1296172840    0.4864205520          0.5521
C671       C    0.9463007420   -0.1149773010    0.5108891492          0.5765
C672       C    0.9414700653   -0.1759640751    0.5179607902         -0.4029
C673       C    0.9174455367   -0.1574187928    0.5262377817         -0.3983
C674       C    0.9191499231   -0.1266974153    0.5210169590         -0.4102
O675       O    0.9408323156   -0.2050096382    0.5284922684         -0.3867
H676       H    0.8966523179   -0.1672251585    0.5377897021         -0.3845
H677       H    0.8997020827   -0.1111402963    0.5273743827          -0.407
H678       H    0.9479546949   -0.0893458482    0.5094500723          0.5692
H679       H    0.9590078029   -0.2121186842    0.5157798223         -0.3975
C680       C    1.0166075738   -0.2342054849    0.4906962343         -0.4182
C681       C    1.0167183976   -0.2655694355    0.4903395154         -0.4113
C682       C    0.9906435014   -0.2831542261    0.4858339271         -0.4099
C683       C    0.9636525153   -0.2661927677    0.4809790429         -0.4166
C684       C    0.9643738453   -0.2341139214    0.4773885438          0.5727
C685       C    0.9934410234   -0.3155802170    0.4867924461         -0.4017
H686       H    1.0397615166   -0.2763678525    0.4939315465         -0.4069
H687       H    1.0389779103   -0.2236210793    0.4974368550         -0.4158
C688       C    0.9382234755   -0.2197912631    0.4660931383          0.5607
C689       C    0.9348722322   -0.2800062085    0.4816191569         -0.4113
C690       C    0.9087331628   -0.2645410016    0.4736245581         -0.4206
C691       C    0.9106706679   -0.2347577999    0.4642165569           0.564
H692       H    0.9319597952   -0.3045074513    0.4884775384         -0.3993
H693       H    0.8860417085   -0.2766406745    0.4737865118         -0.4164
H694       H    0.8896206779   -0.2221741219    0.4565113553          0.5554
H695       H    0.9384156301   -0.1949680877    0.4596615084          0.5492
C696       C    1.0136744911   -0.3268170409    0.5087521540         -0.3805
C697       C    1.0171233628   -0.3572713857    0.5149488886         -0.3681
C698       C    1.0000000000   -0.3788692356    0.5000000000         -0.3756
C699       C    0.9791092934   -0.3691253720    0.4780086240         -0.3965
C700       C    0.9770214303   -0.3378816868    0.4696289340         -0.4111
H701       H    1.0342185245   -0.3642143100    0.5328955614         -0.3513
H702       H    1.0273197779   -0.3113956264    0.5240820779          -0.371
C703       C    0.9597517554   -0.3313549492    0.4430559228          0.5644
C704       C    0.9598692201   -0.3905189419    0.4644956520         -0.4027
C705       C    0.9403600850   -0.3825922389    0.4414653386          0.5759
C706       C    0.9411945125   -0.3535424784    0.4300910701          0.5589
H707       H    0.9591001508   -0.4150155643    0.4720984968         -0.3901
H708       H    0.9248589000   -0.4002376487    0.4310022573          0.5714
H709       H    0.9264893118   -0.3487689153    0.4096359096          0.5402
C710       C    0.9385900770   -0.2915013750    0.4060291015          0.5231
H711       H    0.9153753900   -0.2930751059    0.4173331368          0.5349
H712       H    0.9388208774   -0.3055178507    0.3843438988          0.5068
H713       H    0.9435712535   -0.2667985206    0.4002806718           0.512
O714       O    0.9628661870   -0.3028323368    0.4275805940          0.5437
C609       C    1.0000000000    0.3788692356    0.5000000000          0.5651
C610       C    0.9762685345    0.3607370164    0.4902617200          0.5588
C611       C    0.9756419111    0.3301781201    0.4971257937          0.5613
C612       C    0.9993878355    0.3153162613    0.5123964890           0.572
C613       C    1.0245588642    0.3344031682    0.5211127423         -0.4204
C614       C    1.0229634991    0.3662499578    0.5179303701          0.5731
C615       C    0.9963175774    0.2830879280    0.5170115180          0.5746
H616       H    0.9545115245    0.3178195658    0.4893754096          0.5543
H617       H    0.9572864065    0.3703827160    0.4758189678          0.5521
C618       C    1.0453642186    0.3850226990    0.5307290018          0.5765
C619       C    1.0537959356    0.3240359249    0.5292291045         -0.4029
C620       C    1.0765234423    0.3425812072    0.5405933908         -0.3983
C621       C    1.0716018262    0.3733025847    0.5430305238         -0.4102
O622       O    1.0617637161    0.2949903618    0.5223129471         -0.3867
H623       H    1.0993280492    0.3327748415    0.5473576142         -0.3845
H624       H    1.0897549101    0.3888597037    0.5524698499          -0.407
H625       H    1.0431787545    0.4106541518    0.5305550782          0.5692
H626       H    1.0399625944    0.2878813158    0.5182305804         -0.3975
C627       C    0.9817307713    0.2657945151    0.4946514632         -0.4182
C628       C    0.9813984371    0.2344305645    0.4948220043         -0.4113
C629       C    0.9964320474    0.2168457739    0.5165979337         -0.4099
C630       C    1.0118574246    0.2338072323    0.5392726105         -0.4166
C631       C    1.0087882557    0.2658860786    0.5412706604          0.5727
C632       C    0.9951584465    0.1844197830    0.5139290708         -0.4017
H633       H    0.9678345081    0.2236321475    0.4758507669         -0.4069
H634       H    0.9708864265    0.2763789207    0.4739568235         -0.4158
C635       C    1.0190255370    0.2802087369    0.5678531001          0.5607
C636       C    1.0324596629    0.2199937915    0.5593788836         -0.4113
C637       C    1.0450464074    0.2354589984    0.5836428161         -0.4206
C638       C    1.0369712144    0.2652422001    0.5888443227           0.564
H639       H    1.0393963808    0.1954925487    0.5566582895         -0.3993
H640       H    1.0610452089    0.2233593255    0.5997352577         -0.4164
H641       H    1.0462024827    0.2778258781    0.6092711653          0.5554
H642       H    1.0142976891    0.3050319123    0.5722177582          0.5492
C643       C    0.9966790081    0.1731829591    0.4841077718         -0.3805
C644       C    0.9986905211    0.1427286143    0.4773071798         -0.3681
C645       C    1.0000000000    0.1211307644    0.5000000000         -0.3756
C646       C    0.9989168635    0.1308746280    0.5303128530         -0.3965
C647       C    0.9943936722    0.1621183132    0.5376694227         -0.4111
H648       H    0.9995417421    0.1357856900    0.4525361676         -0.3513
H649       H    0.9980761755    0.1886043736    0.4636322170          -0.371
C650       C    0.9875038377    0.1686450508    0.5686031709          0.5644
C651       C    1.0027334617    0.1094810581    0.5535123015         -0.4027
C652       C    0.9999412895    0.1174077611    0.5835656784          0.5759
C653       C    0.9912339375    0.1464575216    0.5909312927          0.5589
H654       H    1.0087015868    0.0849844357    0.5487398598         -0.3901
H655       H    1.0033189847    0.0997623513    0.6019600791          0.5714
H656       H    0.9869183226    0.1512310847    0.6157512844          0.5402
C657       C    0.9758723433    0.2084986250    0.6096337748          0.5231
H658       H    1.0001948491    0.2069248941    0.6183008746          0.5349
H659       H    0.9602236347    0.1944821493    0.6246477419          0.5068
H660       H    0.9682802944    0.2332014794    0.6100999915           0.512
O661       O    0.9742716724    0.1971676632    0.5772110329          0.5437
C556       C    0.8788692356   -0.0000000000    0.5000000000          0.5651
C557       C    0.8607370164    0.0222885130    0.4873020182          0.5588
C558       C    0.8301781201    0.0237892412    0.4940292747          0.5613
C559       C    0.8153162613    0.0021950742    0.5122159459           0.572
C560       C    0.8344031682   -0.0216520609    0.5240847244         -0.4204
C561       C    0.8662499578   -0.0204774913    0.5207242084          0.5731
C562       C    0.7830879280    0.0058312096    0.5163996638          0.5746
H563       H    0.8178195658    0.0437527473    0.4836360022          0.5543
H564       H    0.8703827160    0.0392641865    0.4705466972          0.5521
C565       C    0.8850226990   -0.0410541997    0.5362868650          0.5765
C566       C    0.8240359249   -0.0496085855    0.5358794019         -0.4029
C567       C    0.8425812072   -0.0706931242    0.5500613903         -0.3983
C568       C    0.8733025847   -0.0654998647    0.5518480011         -0.4102
O569       O    0.7949903618   -0.0583966635    0.5300408710         -0.3867
H570       H    0.8327748415   -0.0924433820    0.5596910890         -0.3845
H571       H    0.8888597037   -0.0822942479    0.5635349180          -0.407
H572       H    0.9106541518   -0.0389090193    0.5358344229          0.5692
H573       H    0.7878813158   -0.0372980860    0.5231994783         -0.3975
C574       C    0.7657945151    0.0174335889    0.4923552932         -0.4182
C575       C    0.7344305645    0.0177850310    0.4924818584         -0.4113
C576       C    0.7168457739    0.0056647038    0.5160041500         -0.4099
C577       C    0.7338072323   -0.0067290359    0.5404679692         -0.4166
C578       C    0.7658860786   -0.0034292078    0.5420564071          0.5727
C579       C    0.6844197830    0.0065859391    0.5131941298         -0.4017
H580       H    0.7236321475    0.0288070573    0.4719294143         -0.4069
H581       H    0.7763789207    0.0255376732    0.4704420154         -0.4158
C582       C    0.7802087369   -0.0101770204    0.5697312162          0.5607
C583       C    0.7199937915   -0.0245859928    0.5630476842         -0.4113
C584       C    0.7354589984   -0.0339609066    0.5887240460         -0.4206
C585       C    0.7652422001   -0.0252859426    0.5928482928           0.564
H586       H    0.6954925487   -0.0318140634    0.5612380760         -0.3993
H587       H    0.7233593255   -0.0477665111    0.6067333105         -0.4164
H588       H    0.7778258781   -0.0318245435    0.6142893494          0.5554
H589       H    0.8050319123   -0.0049290227    0.5734542936          0.5492
C590       C    0.6731829591    0.0012578859    0.4838132885         -0.3805
C591       C    0.6427286143   -0.0016081909    0.4773263910         -0.3681
C592       C    0.6211307644   -0.0000000000    0.5000000000         -0.3756
C593       C    0.6308746280    0.0049571983    0.5299243785         -0.3965
C594       C    0.6621183132    0.0103854804    0.5366409349         -0.4111
H595       H    0.6357856900   -0.0056254912    0.4528684900         -0.3513
H596       H    0.6886043736   -0.0027506280    0.4636853915          -0.371
C597       C    0.6686450508    0.0211810738    0.5664372730          0.5644
C598       C    0.6094810581    0.0041438219    0.5534215964         -0.4027
C599       C    0.6174077611    0.0107627383    0.5828697141          0.5759
C600       C    0.6464575216    0.0203418690    0.5890592623          0.5589
H601       H    0.5849844357   -0.0023864710    0.5494529706         -0.3901
H602       H    0.5997623513    0.0097691369    0.6015452479          0.5714
H603       H    0.6512310847    0.0278012963    0.6131219609          0.5402
C604       C    0.7084986250    0.0379726405    0.6056398929          0.5231
H605       H    0.7069248941    0.0149607414    0.6173512297          0.5349
H606       H    0.6944821493    0.0554156734    0.6185256172          0.5068
H607       H    0.7332014794    0.0455618643    0.6051297502           0.512
O608       O    0.6971676632    0.0354068690    0.5732792199          0.5437
C503       C    1.1211307644   -0.0000000000    0.5000000000          0.5651
C504       C    1.1392629836    0.0196614791    0.5164755209          0.5588
C505       C    1.1698218799    0.0223398802    0.5101245893          0.5613
C506       C    1.1846837387    0.0043421239    0.4883727198           0.572
C507       C    1.1655968318   -0.0170010397    0.4724346170         -0.4204
C508       C    1.1337500422   -0.0164457171    0.4759509074          0.5731
C509       C    1.2169120720    0.0086671801    0.4849058962          0.5746
H510       H    1.1821804342    0.0401254882    0.5239171177          0.5543
H511       H    1.1296172840    0.0333707487    0.5359939789          0.5521
C512       C    1.1149773010   -0.0339111593    0.4569626075          0.5765
C513       C    1.1759640751   -0.0424007229    0.4558352863         -0.4029
C514       C    1.1574187928   -0.0606124804    0.4381147205         -0.3983
C515       C    1.1266974153   -0.0551835896    0.4372846197         -0.4102
O516       O    1.2050096382   -0.0520904721    0.4600099143         -0.3867
H517       H    1.1672251585   -0.0802925079    0.4247542815         -0.3845
H518       H    1.1111402963   -0.0696199488    0.4227854174          -0.407
H519       H    1.0893458482   -0.0318813167    0.4577910046          0.5692
H520       H    1.2121186842   -0.0325535142    0.4705104811         -0.3975
C521       C    1.2342054849    0.0157874172    0.5106362127         -0.4182
C522       C    1.2655694355    0.0161558163    0.5105744683         -0.4113
C523       C    1.2831542261    0.0084326949    0.4852653014         -0.4099
C524       C    1.2661927677    0.0006087619    0.4589809086         -0.4166
C525       C    1.2341139214    0.0041392777    0.4580075337          0.5727
C526       C    1.3155802170    0.0088371039    0.4881946940         -0.4017
H527       H    1.2763678525    0.0233288645    0.5327653538         -0.4069
H528       H    1.2236210793    0.0198463535    0.5336447538         -0.4158
C529       C    1.2197912631    0.0024440845    0.4295724436          0.5607
C530       C    1.2800062085   -0.0129270937    0.4335743139         -0.4113
C531       C    1.2645410016   -0.0175641458    0.4066361939         -0.4206
C532       C    1.2347577999   -0.0082919454    0.4041280645           0.564
H533       H    1.3045074513   -0.0203621699    0.4340635258         -0.3993
H534       H    1.2766406745   -0.0279303281    0.3864502931         -0.4164
H535       H    1.2221741219   -0.0108949440    0.3818638194          0.5554
H536       H    1.1949680877    0.0082727800    0.4268468071          0.5492
C537       C    1.3268170409   -0.0016540837    0.5161510344         -0.3805
C538       C    1.3572713857   -0.0056329291    0.5220215561         -0.3681
C539       C    1.3788692356   -0.0000000000    0.5000000000         -0.3756
C540       C    1.3691253720    0.0102234009    0.4714426136         -0.3965
C541       C    1.3378816868    0.0167642614    0.4658038620         -0.4111
H542       H    1.3642143100   -0.0139549734    0.5453683160         -0.3513
H543       H    1.3113956264   -0.0091939336    0.5352390171          -0.371
C544       C    1.3313549492    0.0327092605    0.4384154776          0.5644
C545       C    1.3905189419    0.0136208552    0.4481780884         -0.4027
C546       C    1.3825922389    0.0253941586    0.4203861648          0.5759
C547       C    1.3535424784    0.0359249435    0.4160074868          0.5589
H548       H    1.4150155643    0.0064866260    0.4509162427         -0.3901
H549       H    1.4002376487    0.0277528999    0.4018335600          0.5714
H550       H    1.3487689153    0.0475631388    0.3936645029          0.5402
C551       C    1.2915013750    0.0562341947    0.4028433031          0.5231
H552       H    1.2930751059    0.0356847038    0.3872093231          0.5349
H553       H    1.3055178507    0.0756986374    0.3932810463          0.5068
H554       H    1.2667985206    0.0636101939    0.4047010436           0.512
O555       O    1.3028323368    0.0479285089    0.4342250164          0.5437
C450       C    0.0000000000   -0.1211307644    0.0000000000          0.5651
C451       C    0.0146217466   -0.1392629836   -0.0210765528          0.5588
C452       C    0.0080538059   -0.1698218799   -0.0231670837          0.5613
C453       C   -0.0119735849   -0.1846837387   -0.0032681723           0.572
C454       C   -0.0259074014   -0.1655968318    0.0194343058         -0.4204
C455       C   -0.0224560783   -0.1337500422    0.0185619237          0.5731
C456       C   -0.0158188886   -0.2169120720   -0.0072604919          0.5746
H457       H    0.0201740176   -0.1821804342   -0.0421318447          0.5543
H458       H    0.0328144428   -0.1296172840   -0.0365018593          0.5521
C459       C   -0.0397796665   -0.1149773010    0.0376797295          0.5765
C460       C   -0.0401312941   -0.1759640751    0.0462365924         -0.4029
C461       C   -0.0561246059   -0.1574187928    0.0659824917         -0.3983
C462       C   -0.0574443358   -0.1266974153    0.0606514284         -0.4102
O463       O   -0.0350938819   -0.2050096382    0.0555071499         -0.3867
H464       H   -0.0676424601   -0.1672251585    0.0867945999         -0.3845
H465       H   -0.0705724846   -0.1111402963    0.0763449635          -0.407
H466       H   -0.0391390461   -0.0893458482    0.0355830397          0.5692
H467       H   -0.0264110869   -0.2121186842    0.0350972578         -0.3975
C468       C    0.0091584191   -0.2342054849   -0.0166881671         -0.4182
C469       C    0.0090634713   -0.2655694355   -0.0170494360         -0.4113
C470       C   -0.0154396726   -0.2831542261   -0.0070596174         -0.4099
C471       C   -0.0409048560   -0.2661927677    0.0031191675         -0.4166
C472       C   -0.0421948547   -0.2341139214   -0.0003083540          0.5727
C473       C   -0.0125591155   -0.3155802170   -0.0077284068         -0.4017
H474       H    0.0305111795   -0.2763678525   -0.0262082479         -0.4069
H475       H    0.0317032318   -0.2236210793   -0.0228199978         -0.4158
C476       C   -0.0703584682   -0.2197912631    0.0039623495          0.5607
C477       C   -0.0649771041   -0.2800062085    0.0189065459         -0.4113
C478       C   -0.0913827501   -0.2645410016    0.0259709931         -0.4206
C479       C   -0.0947226286   -0.2347577999    0.0169649049           0.564
H480       H   -0.0638146495   -0.3045074513    0.0262664635         -0.3993
H481       H   -0.1105437547   -0.2766406745    0.0381276469         -0.4164
H482       H   -0.1166584517   -0.2221741219    0.0215792169          0.5554
H483       H   -0.0736022107   -0.1949680877   -0.0015947109          0.5492
C484       C    0.0162345116   -0.3268170409    0.0001803872         -0.3805
C485       C    0.0224421360   -0.3572713857    0.0036096195         -0.3681
C486       C   -0.0000000000   -0.3788692356    0.0000000000         -0.3756
C487       C   -0.0293678683   -0.3691253720   -0.0075875262         -0.3965
C488       C   -0.0355773665   -0.3378816868   -0.0135892350         -0.4111
H489       H    0.0464482285   -0.3642143100    0.0097768837         -0.3513
H490       H    0.0359283874   -0.3113956264    0.0059554781          -0.371
C491       C   -0.0643007080   -0.3313549492   -0.0269808836          0.5644
C492       C   -0.0528448075   -0.3905189419   -0.0088580215         -0.4027
C493       C   -0.0815911409   -0.3825922389   -0.0180585651          0.5759
C494       C   -0.0869081438   -0.3535424784   -0.0281481505          0.5589
H495       H   -0.0494700283   -0.4150155643   -0.0020019598         -0.3901
H496       H   -0.1002812957   -0.4002376487   -0.0187225837          0.5714
H497       H   -0.1102157863   -0.3487689153   -0.0377090251          0.5402
C498       C   -0.1018624382   -0.2915013750   -0.0471778771          0.5231
H499       H   -0.1155654714   -0.2930751059   -0.0252934125          0.5349
H500       H   -0.1131529651   -0.3055178507   -0.0656934189          0.5068
H501       H   -0.1006822744   -0.2667985206   -0.0546921154           0.512
O502       O   -0.0698560851   -0.3028323368   -0.0417566499          0.5437
C397       C    0.0000000000    0.1211307644    0.0000000000          0.5651
C398       C    0.0138666316    0.1392629836   -0.0215808498          0.5588
C399       C    0.0183139289    0.1698218799   -0.0163149491          0.5613
C400       C    0.0076060653    0.1846837387    0.0098079281           0.572
C401       C   -0.0080259908    0.1655968318    0.0313762516         -0.4204
C402       C   -0.0085424218    0.1337500422    0.0278540391          0.5731
C403       C    0.0127669656    0.2169120720    0.0118303242          0.5746
H404       H    0.0311882702    0.1821804342   -0.0347760711          0.5543
H405       H    0.0211451198    0.1296172840   -0.0442951159          0.5521
C406       C   -0.0195646429    0.1149773010    0.0511801586          0.5765
C407       C   -0.0273339116    0.1759640751    0.0547832138         -0.4029
C408       C   -0.0394459511    0.1574187928    0.0771211874         -0.3983
C409       C   -0.0340160355    0.1266974153    0.0762978166         -0.4102
O410       O   -0.0378270390    0.2050096382    0.0536818346         -0.3867
H411       H   -0.0542574605    0.1672251585    0.0957336563         -0.3845
H412       H   -0.0434825872    0.1111402963    0.0944367177          -0.407
H413       H   -0.0178733593    0.0893458482    0.0497851451          0.5692
H414       H   -0.0223009052    0.2121186842    0.0378422071         -0.3975
C415       C    0.0119061545    0.2342054849   -0.0148531158         -0.4182
C416       C    0.0122762347    0.2655694355   -0.0149038197         -0.4113
C417       C    0.0124361346    0.2831542261    0.0115569998         -0.4099
C418       C    0.0127900571    0.2661927677    0.0389788518         -0.4166
C419       C    0.0164502790    0.2341139214    0.0388572924          0.5727
C420       C    0.0119503134    0.3155802170    0.0086400038         -0.4017
H421       H    0.0125193143    0.2763678525   -0.0382239598         -0.4069
H422       H    0.0089328922    0.2236210793   -0.0380269726         -0.4158
C423       C    0.0232953090    0.2197912631    0.0665082163          0.5607
C424       C    0.0074296631    0.2800062085    0.0672627805         -0.4113
C425       C    0.0110206071    0.2645410016    0.0943601914         -0.4206
C426       C    0.0206190944    0.2347577999    0.0939948792           0.564
H427       H    0.0001859474    0.3045074513    0.0690087097         -0.3993
H428       H    0.0071323493    0.2766406745    0.1167166173         -0.4164
H429       H    0.0247607775    0.2221741219    0.1160248287          0.5554
H430       H    0.0296710950    0.1949680877    0.0673754750          0.5492
C431       C   -0.0063862973    0.3268170409   -0.0149267248         -0.3805
C432       C   -0.0119321121    0.3572713857   -0.0193469254         -0.3681
C433       C   -0.0000000000    0.3788692356    0.0000000000         -0.3756
C434       C    0.0182598553    0.3691253720    0.0242202379         -0.3965
C435       C    0.0261825869    0.3378816868    0.0276566169         -0.4111
H436       H   -0.0268258971    0.3642143100   -0.0391586086         -0.3513
H437       H   -0.0192657596    0.3113956264   -0.0309054566          -0.371
C438       C    0.0495567881    0.3313549492    0.0490578625          0.5644
C439       C    0.0284277640    0.3905189419    0.0454191640         -0.4027
C440       C    0.0479394462    0.3825922389    0.0684473195          0.5759
C441       C    0.0592962255    0.3535424784    0.0694931758          0.5589
H442       H    0.0208018872    0.4150155643    0.0449285325         -0.3901
H443       H    0.0557132662    0.4002376487    0.0854570381          0.5714
H444       H    0.0770571054    0.3487689153    0.0873595594          0.5402
C445       C    0.0826032060    0.2915013750    0.0760159113          0.5231
H446       H    0.0676383332    0.2930751059    0.0970576672          0.5349
H447       H    0.1040315917    0.3055178507    0.0793514129          0.5068
H448       H    0.0890919773    0.2667985206    0.0720469807           0.512
O449       O    0.0653335219    0.3028323368    0.0485285623          0.5437
C344       C   -0.1211307644   -0.0000000000    0.0000000000          0.5651
C345       C   -0.1392629836   -0.0091063822    0.0239810416          0.5588
C346       C   -0.1698218799   -0.0145461042    0.0197481242          0.5613
C347       C   -0.1846837387   -0.0094691160   -0.0080239346           0.572
C348       C   -0.1655968318    0.0013671540   -0.0323576356         -0.4204
C349       C   -0.1337500422    0.0026004778   -0.0290182353          0.5731
C350       C   -0.2169120720   -0.0149365938   -0.0089358909          0.5746
H351       H   -0.1821804342   -0.0233264768    0.0404717037          0.5543
H352       H   -0.1296172840   -0.0115326193    0.0477092452          0.5521
C353       C   -0.1149773010    0.0085631277   -0.0541189128          0.5765
C354       C   -0.1759640751    0.0154198564   -0.0592500740         -0.4029
C355       C   -0.1574187928    0.0226530401   -0.0836092123         -0.3983
C356       C   -0.1266974153    0.0175105800   -0.0816812529         -0.4102
O357       O   -0.2050096382    0.0259140319   -0.0603414219         -0.3867
H358       H   -0.1672251585    0.0332974625   -0.1048812851         -0.3845
H359       H   -0.1111402963    0.0230233609   -0.1013851759          -0.407
H360       H   -0.0893458482    0.0071967198   -0.0524044356          0.5692
H361       H   -0.2121186842    0.0139972684   -0.0416345949         -0.3975
C362       C   -0.2342054849   -0.0085788739    0.0169933659         -0.4182
C363       C   -0.2655694355   -0.0089304814    0.0171194709         -0.4113
C364       C   -0.2831542261   -0.0145564109   -0.0087368524         -0.4099
C365       C   -0.2661927677   -0.0205708195   -0.0354933492         -0.4166
C366       C   -0.2341139214   -0.0241268691   -0.0346178427          0.5727
C367       C   -0.3155802170   -0.0134781348   -0.0059832713         -0.4017
H368       H   -0.2763678525   -0.0043480108    0.0399862368         -0.4069
H369       H   -0.2236210793   -0.0008797582    0.0390521860         -0.4158
C370       C   -0.2197912631   -0.0365395535   -0.0602567447          0.5607
C371       C   -0.2800062085   -0.0211725095   -0.0642744612         -0.4113
C372       C   -0.2645410016   -0.0302869709   -0.0900444274         -0.4206
C373       C   -0.2347577999   -0.0396026600   -0.0877029857           0.564
H374       H   -0.3045074513   -0.0144461138   -0.0674799702         -0.3993
H375       H   -0.2766406745   -0.0311037832   -0.1127217540         -0.4164
H376       H   -0.2221741219   -0.0482085164   -0.1084010881          0.5554
H377       H   -0.1949680877   -0.0429569122   -0.0597873917          0.5492
C378       C   -0.3268170409    0.0093337513    0.0132843138         -0.3805
C379       C   -0.3572713857    0.0156734601    0.0164627298         -0.3681
C380       C   -0.3788692356   -0.0000000000    0.0000000000         -0.3756
C381       C   -0.3691253720   -0.0228718695   -0.0199228468         -0.3965
C382       C   -0.3378816868   -0.0313338064   -0.0216473761         -0.4111
H383       H   -0.3642143100    0.0343406990    0.0327679992         -0.3513
H384       H   -0.3113956264    0.0252378931    0.0262557707          -0.371
C385       C   -0.3313549492   -0.0586268840   -0.0377549679          0.5644
C386       C   -0.3905189419   -0.0372020365   -0.0385622446         -0.4027
C387       C   -0.3825922389   -0.0610522937   -0.0570599989          0.5759
C388       C   -0.3535424784   -0.0723799931   -0.0557358092          0.5589
H389       H   -0.4150155643   -0.0296394331   -0.0396584865         -0.3901
H390       H   -0.4002376487   -0.0721741603   -0.0720955198          0.5714
H391       H   -0.3487689153   -0.0934503139   -0.0695451576          0.5402
C392       C   -0.2915013750   -0.0965318960   -0.0573001000          0.5231
H393       H   -0.2930751059   -0.0862395588   -0.0809806977          0.5349
H394       H   -0.3055178507   -0.1181869690   -0.0561342957          0.5068
H395       H   -0.2667985206   -0.1020601540   -0.0520756453           0.512
O396       O   -0.3028323368   -0.0739534983   -0.0339760287          0.5437
C291       C    0.1211307644   -0.0000000000    0.0000000000          0.5651
C292       C    0.1392629836   -0.0198235895   -0.0162801060          0.5588
C293       C    0.1698218799   -0.0224389983   -0.0099029749          0.5613
C294       C    0.1846837387   -0.0042268253    0.0116696886           0.572
C295       C    0.1655968318    0.0172730470    0.0273957577         -0.4204
C296       C    0.1337500422    0.0166829476    0.0238851360          0.5731
C297       C    0.2169120720   -0.0085173553    0.0151791515          0.5746
H298       H    0.1821804342   -0.0403602525   -0.0235187870          0.5543
H299       H    0.1296172840   -0.0337253797   -0.0356619146          0.5521
C300       C    0.1149773010    0.0343354790    0.0426996343          0.5765
C301       C    0.1759640751    0.0428357849    0.0437428711         -0.4029
C302       C    0.1574187928    0.0612220471    0.0612823103         -0.3983
C303       C    0.1266974153    0.0558016385    0.0621661052         -0.4102
O304       O    0.2050096382    0.0524837393    0.0394725392         -0.3867
H305       H    0.1672251585    0.0810333511    0.0744473034         -0.3845
H306       H    0.1111402963    0.0703808025    0.0765217073          -0.407
H307       H    0.0893458482    0.0322975365    0.0418913689          0.5692
H308       H    0.2121186842    0.0328438046    0.0291658621         -0.3975
C309       C    0.2342054849   -0.0158919203   -0.0104794291         -0.4182
C310       C    0.2655694355   -0.0162596902   -0.0104140413         -0.4113
C311       C    0.2831542261   -0.0082864389    0.0148174430         -0.4099
C312       C    0.2661927677   -0.0002027282    0.0410231076         -0.4166
C313       C    0.2341139214   -0.0037234367    0.0420313796          0.5727
C314       C    0.3155802170   -0.0087198230    0.0118921967         -0.4017
H315       H    0.2763678525   -0.0236520307   -0.0325328415         -0.4069
H316       H    0.2236210793   -0.0201783946   -0.0334466680         -0.4158
C317       C    0.2197912631   -0.0017468781    0.0704482979          0.5607
C318       C    0.2800062085    0.0135839369    0.0662944808         -0.4113
C319       C    0.2645410016    0.0184873933    0.0931853840         -0.4206
C320       C    0.2347577999    0.0092404723    0.0957851661           0.564
H321       H    0.3045074513    0.0210138067    0.0657317010         -0.3993
H322       H    0.2766406745    0.0290528663    0.1132676923         -0.4164
H323       H    0.2221741219    0.0120637132    0.1180225563          0.5554
H324       H    0.1949680877   -0.0075483100    0.0732314928          0.5492
C325       C    0.3268170409    0.0014941409   -0.0161666152         -0.3805
C326       C    0.3572713857    0.0054146854   -0.0220762317         -0.3681
C327       C    0.3788692356   -0.0000000000    0.0000000000         -0.3756
C328       C    0.3691253720   -0.0099402412    0.0286571779         -0.3965
C329       C    0.3378816868   -0.0164249695    0.0343603943         -0.4111
H330       H    0.3642143100    0.0135052376   -0.0455042189         -0.3513
H331       H    0.3113956264    0.0088446901   -0.0353282918          -0.371
C332       C    0.3313549492   -0.0320980993    0.0619052594          0.5644
C333       C    0.3905189419   -0.0131072586    0.0519541913         -0.4027
C334       C    0.3825922389   -0.0246049029    0.0798612847          0.5759
C335       C    0.3535424784   -0.0350918322    0.0843439811          0.5589
H336       H    0.4150155643   -0.0060004809    0.0491455570         -0.3901
H337       H    0.4002376487   -0.0267798965    0.0984363274          0.5714
H338       H    0.3487689153   -0.0465083082    0.1068010645          0.5402
C339       C    0.2915013750   -0.0552697904    0.0977085394          0.5231
H340       H    0.2930751059   -0.0345665622    0.1131383563          0.5349
H341       H    0.3055178507   -0.0746386332    0.1074629854          0.5068
H342       H    0.2667985206   -0.0626638161    0.0959238970           0.512
O343       O    0.3028323368   -0.0472751253    0.0662461543          0.5437
C238       C    0.0000000000    0.0000000000   -0.1211307644          0.5651
C239       C   -0.0065944478   -0.0247897117   -0.1392629836          0.5588
C240       C    0.0002930964   -0.0245253267   -0.1698218799          0.5613
C241       C    0.0123718362    0.0009926493   -0.1846837387           0.572
C242       C    0.0177670353    0.0270780012   -0.1655968318         -0.4204
C243       C    0.0148171442    0.0250853085   -0.1337500422          0.5731
C244       C    0.0173444773   -0.0014563949   -0.2169120720          0.5746
H245       H   -0.0046657309   -0.0464791811   -0.1821804342          0.5543
H246       H   -0.0184669076   -0.0454768811   -0.1296172840          0.5521
C247       C    0.0246180806    0.0489503216   -0.1149773010          0.5765
C248       C    0.0220426597    0.0571179866   -0.1759640751         -0.4029
C249       C    0.0303790736    0.0811219606   -0.1574187928         -0.3983
C250       C    0.0334309356    0.0765559928   -0.1266974153         -0.4102
O251       O    0.0141561333    0.0641266569   -0.2050096382         -0.3867
H252       H    0.0341439372    0.1046087784   -0.1672251585         -0.3845
H253       H    0.0404487870    0.0957753865   -0.1111402963          -0.407
H254       H    0.0247276328    0.0467606867   -0.0893458482          0.5692
H255       H    0.0129212091    0.0419810120   -0.2121186842         -0.3975
C256       C   -0.0029462782   -0.0188066746   -0.2342054849         -0.4182
C257       C   -0.0027342771   -0.0191142227   -0.2655694355         -0.4113
C258       C    0.0169195794   -0.0013962527   -0.2831542261         -0.4099
C259       C    0.0374141135    0.0168261868   -0.2661927677         -0.4166
C260       C    0.0397915160    0.0140405166   -0.2341139214          0.5727
C261       C    0.0144373822   -0.0030036062   -0.3155802170         -0.4017
H262       H   -0.0197965461   -0.0350128704   -0.2763678525         -0.4069
H263       H   -0.0220684864   -0.0322308721   -0.2236210793         -0.4158
C264       C    0.0648306335    0.0276225129   -0.2197912631          0.5607
C265       C    0.0546936747    0.0398507651   -0.2800062085         -0.4113
C266       C    0.0771304857    0.0554633905   -0.2645410016         -0.4206
C267       C    0.0833305588    0.0481269399   -0.2347577999           0.564
H268       H    0.0511006845    0.0463784070   -0.3045074513         -0.3993
H269       H    0.0910238227    0.0734050602   -0.2766406745         -0.4164
H270       H    0.1023953672    0.0599169904   -0.2221741219          0.5554
H271       H    0.0697688994    0.0234974294   -0.1949680877          0.5492
C272       C   -0.0153307959   -0.0053440251   -0.3268170409         -0.3805
C273       C   -0.0223341011   -0.0042269078   -0.3572713857         -0.3681
C274       C    0.0000000000    0.0000000000   -0.3788692356         -0.3756
C275       C    0.0301991748    0.0028376187   -0.3691253720         -0.3965
C276       C    0.0380779268   -0.0006984305   -0.3378816868         -0.4111
H277       H   -0.0470078440   -0.0065793604   -0.3642143100         -0.3513
H278       H   -0.0358154476   -0.0066007919   -0.3113956264          -0.371
C279       C    0.0696421264   -0.0035388360   -0.3313549492          0.5644
C280       C    0.0527121390    0.0096160610   -0.3905189419         -0.4027
C281       C    0.0828745484    0.0107254496   -0.3825922389          0.5759
C282       C    0.0913022112    0.0030413913   -0.3535424784          0.5589
H283       H    0.0472094483    0.0149184294   -0.4150155643         -0.3901
H284       H    0.1006792785    0.0164485948   -0.4002376487          0.5714
H285       H    0.1164715842    0.0019647369   -0.3487689153          0.5402
C286       C    0.1118306441   -0.0097783146   -0.2915013750          0.5231
H287       H    0.1172865976    0.0154592661   -0.2930751059          0.5349
H288       H    0.1287384526   -0.0233587159   -0.3055178507          0.5068
H289       H    0.1132726729   -0.0172467225   -0.2667985206           0.512
O290       O    0.0798855513   -0.0155495700   -0.3028323368          0.5437
C185       C   -0.0000000000    0.0000000000    0.3788692356          0.5651
C186       C    0.0033986589   -0.0254256891    0.3607370164          0.5588
C187       C    0.0096602319   -0.0225445665    0.3301781201          0.5613
C188       C    0.0110492104    0.0056535505    0.3153162613           0.572
C189       C    0.0060466389    0.0318170371    0.3344031682         -0.4204
C190       C    0.0040843936    0.0288468056    0.3662499578          0.5731
C191       C    0.0165806043    0.0052948598    0.2830879280          0.5746
H192       H    0.0134841942   -0.0447242644    0.3178195658          0.5543
H193       H    0.0003507808   -0.0490820776    0.3703827160          0.5521
C194       C    0.0040019444    0.0546458445    0.3850226990          0.5765
C195       C   -0.0015042311    0.0612052328    0.3240359249         -0.4029
C196       C   -0.0029928238    0.0865719562    0.3425812072         -0.3983
C197       C    0.0015745917    0.0835222614    0.3733025847         -0.4102
O198       O   -0.0114731481    0.0646605839    0.2949903618         -0.3867
H199       H   -0.0085066751    0.1097107171    0.3327748415         -0.3845
H200       H    0.0006996616    0.1039641261    0.3888597037          -0.407
H201       H    0.0049414467    0.0526649765    0.4106541518          0.5692
H202       H   -0.0041355750    0.0437293955    0.2878813158         -0.3975
C203       C    0.0044782875   -0.0185017973    0.2657945151         -0.4182
C204       C    0.0047918806   -0.0187047497    0.2344305645         -0.4113
C205       C    0.0161650534    0.0051877486    0.2168457739         -0.4099
C206       C    0.0281217189    0.0298681332    0.2338072323         -0.4166
C207       C    0.0313844780    0.0282048823    0.2658860786          0.5727
C208       C    0.0144873429    0.0027525535    0.1844197830         -0.4017
H209       H   -0.0048836774   -0.0399243538    0.2236321475         -0.4069
H210       H   -0.0080476037   -0.0382241191    0.2763789207         -0.4158
C211       C    0.0493160648    0.0503382559    0.2802087369          0.5607
C212       C    0.0352698674    0.0577539435    0.2199937915         -0.4113
C213       C    0.0500199919    0.0807669482    0.2354589984         -0.4206
C214       C    0.0585564340    0.0763631351    0.2652422001           0.564
H215       H    0.0294515289    0.0624086856    0.1954925487         -0.3993
H216       H    0.0559858879    0.1026607009    0.2233593255         -0.4164
H217       H    0.0716549281    0.0945538378    0.2778258781          0.5554
H218       H    0.0554573705    0.0484180605    0.3050319123          0.5492
C219       C   -0.0121168168   -0.0108062322    0.1731829591         -0.3805
C220       C   -0.0190142363   -0.0124554262    0.1427286143         -0.3681
C221       C   -0.0000000000   -0.0000000000    0.1211307644         -0.3756
C222       C    0.0268119677    0.0141831108    0.1308746280         -0.3965
C223       C    0.0354442175    0.0139328304    0.1621183132         -0.4111
H224       H   -0.0409074914   -0.0240749357    0.1357856900         -0.3513
H225       H   -0.0305596224   -0.0198097507    0.1886043736          -0.371
C226       C    0.0656910294    0.0233931141    0.1686450508          0.5644
C227       C    0.0450145904    0.0290641510    0.1094810581         -0.4027
C228       C    0.0724542428    0.0416366274    0.1174077611          0.5759
C229       C    0.0831816387    0.0377645181    0.1464575216          0.5589
H230       H    0.0379011419    0.0318558470    0.0849844357         -0.3901
H231       H    0.0867113632    0.0537402354    0.0997623513          0.5714
H232       H    0.1068455884    0.0464059302    0.1512310847          0.5402
C233       C    0.1070540356    0.0337807913    0.2084986250          0.5231
H234       H    0.1024321570    0.0591843569    0.2069248941          0.5349
H235       H    0.1278728888    0.0277081775    0.1944821493          0.5068
H236       H    0.1112454614    0.0274334680    0.2332014794           0.512
O237       O    0.0797523051    0.0162191326    0.1971676632          0.5437
loop_
_geom_bond_atom_site_label_1
_geom_bond_atom_site_label_2
_geom_bond_distance
_geom_bond_site_symmetry_2
_ccdc_geom_bond_type
Zn1          O5 1.942       .   S
Zn1          O6 1.922       .   S
Zn1         O10 1.922       .   S
Zn1         O17 1.922       .   S
Zn2          O5 1.942       .   S
Zn2          O7 1.922       .   S
Zn2          O9 1.922       .   S
Zn2         O13 1.922       .   S
Zn3          O5 1.942       .   S
Zn3          O8 1.922       .   S
Zn3         O11 1.922       .   S
Zn3         O14 1.922       .   S
Zn4          O5 1.942       .   S
Zn4         O12 1.922       .   S
Zn4         O15 1.922       .   S
Zn4         O16 1.922       .   S
O6          C18 1.304       .   A
O7          C19 1.304       .   A
O8          C20 1.304       .   A
O9          C18 1.304       .   A
O10         C20 1.304       .   A
O11         C19 1.304       .   A
O12         C21 1.304       .   A
O13         C22 1.304       .   A
O14         C21 1.304       .   A
O15         C22 1.304       .   A
O16         C23 1.304       .   A
O17         C23 1.304       .   A
C18        C221 1.540       .   S
C19        C291 1.540       .   S
C20        C450 1.540       .   S
C21        C238 1.540       .   S
C22        C397 1.540       .   S
C23        C344 1.540       .   S
Zn24        O28 1.942       .   S
Zn24        O29 1.922       .   S
Zn24        O33 1.922       .   S
Zn24        O40 1.922       .   S
Zn25        O28 1.942       .   S
Zn25        O30 1.922       .   S
Zn25        O32 1.922       .   S
Zn25        O36 1.922       .   S
Zn26        O28 1.942       .   S
Zn26        O31 1.922       .   S
Zn26        O34 1.922       .   S
Zn26        O37 1.922       .   S
Zn27        O28 1.942       .   S
Zn27        O35 1.922       .   S
Zn27        O38 1.922       .   S
Zn27        O39 1.922       .   S
O29         C41 1.304       .   A
O30         C42 1.304       .   A
O31         C43 1.304       .   A
O32         C41 1.304       .   A
O33         C43 1.304       .   A
O34         C42 1.304       .   A
O35         C44 1.304       .   A
O36         C45 1.304       .   A
O37         C44 1.304       .   A
O38         C45 1.304       .   A
O39         C46 1.304       .   A
O40         C46 1.304       .   A
C41        C185 1.540   1_655   S
C42        C503 1.540       .   S
C43        C645 1.540       .   S
C44        C274 1.540   1_656   S
C45        C662 1.540       .   S
C46        C556 1.540       .   S
Zn47        O51 1.942       .   S
Zn47        O52 1.922       .   S
Zn47        O56 1.922       .   S
Zn47        O63 1.922       .   S
Zn48        O51 1.942       .   S
Zn48        O53 1.922       .   S
Zn48        O55 1.922       .   S
Zn48        O59 1.922       .   S
Zn49        O51 1.942       .   S
Zn49        O54 1.922       .   S
Zn49        O57 1.922       .   S
Zn49        O60 1.922       .   S
Zn50        O51 1.942       .   S
Zn50        O58 1.922       .   S
Zn50        O61 1.922       .   S
Zn50        O62 1.922       .   S
O52         C64 1.304       .   A
O53         C65 1.304       .   A
O54         C66 1.304       .   A
O55         C64 1.304       .   A
O56         C66 1.304       .   A
O57         C65 1.304       .   A
O58         C67 1.304       .   A
O59         C68 1.304       .   A
O60         C67 1.304       .   A
O61         C68 1.304       .   A
O62         C69 1.304       .   A
O63         C69 1.304       .   A
C64        C433 1.540   1_655   S
C65        C715 1.540       .   S
C66        C821 1.540       .   S
C67        C486 1.540   1_665   S
C68        C910 1.540       .   S
C69        C804 1.540       .   S
Zn70        O74 1.942       .   S
Zn70        O75 1.922       .   S
Zn70        O79 1.922       .   S
Zn70        O86 1.922       .   S
Zn71        O74 1.942       .   S
Zn71        O76 1.922       .   S
Zn71        O78 1.922       .   S
Zn71        O82 1.922       .   S
Zn72        O74 1.942       .   S
Zn72        O77 1.922       .   S
Zn72        O80 1.922       .   S
Zn72        O83 1.922       .   S
Zn73        O74 1.942       .   S
Zn73        O81 1.922       .   S
Zn73        O84 1.922       .   S
Zn73        O85 1.922       .   S
O75         C87 1.304       .   A
O76         C88 1.304       .   A
O77         C89 1.304       .   A
O78         C87 1.304       .   A
O79         C89 1.304       .   A
O80         C88 1.304       .   A
O81         C90 1.304       .   A
O82         C91 1.304       .   A
O83         C90 1.304       .   A
O84         C91 1.304       .   A
O85         C92 1.304       .   A
O86         C92 1.304       .   A
C87        C609 1.540       .   S
C88        C751 1.540       .   S
C89        C980 1.540       .   S
C90        C698 1.540   1_565   S
C91        C927 1.540       .   S
C92        C768 1.540   1_556   S
Zn93        O97 1.942       .   S
Zn93        O98 1.922       .   S
Zn93       O102 1.922       .   S
Zn93       O109 1.922       .   S
Zn94        O97 1.942       .   S
Zn94        O99 1.922       .   S
Zn94       O101 1.922       .   S
Zn94       O105 1.922       .   S
Zn95        O97 1.942       .   S
Zn95       O100 1.922       .   S
Zn95       O103 1.922       .   S
Zn95       O106 1.922       .   S
Zn96        O97 1.942       .   S
Zn96       O104 1.922       .   S
Zn96       O107 1.922       .   S
Zn96       O108 1.922       .   S
O98        C110 1.304       .   A
O99        C111 1.304       .   A
O100       C112 1.304       .   A
O101       C110 1.304       .   A
O102       C112 1.304       .   A
O103       C111 1.304       .   A
O104       C113 1.304       .   A
O105       C114 1.304       .   A
O106       C113 1.304       .   A
O107       C114 1.304       .   A
O108       C115 1.304       .   A
O109       C115 1.304       .   A
C110       C327 1.540   1_565   S
C111      C1069 1.540       .   S
C112      C1228 1.540       .   S
C113       C380 1.540   1_665   S
C114      C1175 1.540       .   S
C115      C1122 1.540       .   S
Zn116      O120 1.942       .   S
Zn116      O121 1.922       .   S
Zn116      O125 1.922       .   S
Zn116      O132 1.922       .   S
Zn117      O120 1.942       .   S
Zn117      O122 1.922       .   S
Zn117      O124 1.922       .   S
Zn117      O128 1.922       .   S
Zn118      O120 1.942       .   S
Zn118      O123 1.922       .   S
Zn118      O126 1.922       .   S
Zn118      O129 1.922       .   S
Zn119      O120 1.942       .   S
Zn119      O127 1.922       .   S
Zn119      O130 1.922       .   S
Zn119      O131 1.922       .   S
O121       C133 1.304       .   A
O122       C134 1.304       .   A
O123       C135 1.304       .   A
O124       C133 1.304       .   A
O125       C135 1.304       .   A
O126       C134 1.304       .   A
O127       C136 1.304       .   A
O128       C137 1.304       .   A
O129       C136 1.304       .   A
O130       C137 1.304       .   A
O131       C138 1.304       .   A
O132       C138 1.304       .   A
C133       C539 1.540   1_465   S
C134      C1033 1.540       .   S
C135      C1245 1.540       .   S
C136       C592 1.540   1_565   S
C137      C1334 1.540       .   S
C138      C1086 1.540   1_556   S
Zn139      O143 1.942       .   S
Zn139      O144 1.922       .   S
Zn139      O148 1.922       .   S
Zn139      O155 1.922       .   S
Zn140      O143 1.942       .   S
Zn140      O145 1.922       .   S
Zn140      O147 1.922       .   S
Zn140      O151 1.922       .   S
Zn141      O143 1.942       .   S
Zn141      O146 1.922       .   S
Zn141      O149 1.922       .   S
Zn141      O152 1.922       .   S
Zn142      O143 1.942       .   S
Zn142      O150 1.922       .   S
Zn142      O153 1.922       .   S
Zn142      O154 1.922       .   S
O144       C156 1.304       .   A
O145       C157 1.304       .   A
O146       C158 1.304       .   A
O147       C156 1.304       .   A
O148       C158 1.304       .   A
O149       C157 1.304       .   A
O150       C159 1.304       .   A
O151       C160 1.304       .   A
O152       C159 1.304       .   A
O153       C160 1.304       .   A
O154       C161 1.304       .   A
O155       C161 1.304       .   A
C156      C1192 1.540       .   S
C157      C1387 1.540       .   S
C158       C857 1.540   1_455   S
C159      C1139 1.540   1_545   S
C160       C874 1.540       .   S
C161      C1404 1.540       .   S
Zn162      O166 1.942       .   S
Zn162      O167 1.922       .   S
Zn162      O171 1.922       .   S
Zn162      O178 1.922       .   S
Zn163      O166 1.942       .   S
Zn163      O168 1.922       .   S
Zn163      O170 1.922       .   S
Zn163      O174 1.922       .   S
Zn164      O166 1.942       .   S
Zn164      O169 1.922       .   S
Zn164      O172 1.922       .   S
Zn164      O175 1.922       .   S
Zn165      O166 1.942       .   S
Zn165      O173 1.922       .   S
Zn165      O176 1.922       .   S
Zn165      O177 1.922       .   S
O167       C179 1.304       .   A
O168       C180 1.304       .   A
O169       C181 1.304       .   A
O170       C179 1.304       .   A
O171       C181 1.304       .   A
O172       C180 1.304       .   A
O173       C182 1.304       .   A
O174       C183 1.304       .   A
O175       C182 1.304       .   A
O176       C183 1.304       .   A
O177       C184 1.304       .   A
O178       C184 1.304       .   A
C179       C963 1.540   1_455   S
C180      C1281 1.540   1_545   S
C181      C1351 1.540       .   S
C182      C1016 1.540       .   S
C183      C1440 1.540   1_556   S
C184      C1298 1.540       .   S
C1404     C1405 0.029       .   A
C1404     C1409 0.030       .   A
C1405     C1406 0.029       .   A
C1405     H1412 0.024       .   A
C1406     C1407 0.030       .   A
C1406     H1411 0.024       .   A
C1407     C1408 0.031       .   A
C1407     C1410 0.030       .   A
C1408     C1409 0.030       .   A
C1408     C1414 0.030       .   A
C1409     C1413 0.030       .   A
C1410     C1422 0.030       .   A
C1410     C1426 0.030       .   A
C1413     C1416 0.029       .   A
C1413     H1420 0.024       .   A
C1414     C1415 0.029       .   A
C1414     O1417 0.029       .   A
C1415     C1416 0.029       .   A
C1415     H1418 0.024       .   A
C1416     H1419 0.024       .   A
O1417     H1421 0.022       .   A
C1422     C1423 0.029       .   A
C1422     H1429 0.024       .   A
C1423     C1424 0.030       .   A
C1423     H1428 0.024       .   A
C1424     C1425 0.030       .   A
C1424     C1427 0.030       .   A
C1425     C1426 0.030       .   A
C1425     C1431 0.030       .   A
C1426     C1430 0.030       .   A
C1427     C1438 0.030       .   A
C1427     C1442 0.030       .   A
C1430     C1433 0.029       .   A
C1430     H1437 0.024       .   A
C1431     C1432 0.029       .   A
C1431     H1434 0.024       .   A
C1432     C1433 0.029       .   A
C1432     H1435 0.024       .   A
C1433     H1436 0.024       .   A
C1438     C1439 0.029       .   A
C1438     H1444 0.024       .   A
C1439     C1440 0.029       .   A
C1439     H1443 0.024       .   A
C1440     C1441 0.030       .   A
C1441     C1442 0.030       .   A
C1441     C1446 0.030       .   A
C1442     C1445 0.030       .   A
C1445     C1448 0.030       .   A
C1445     O1456 0.030       .   A
C1446     C1447 0.029       .   A
C1446     H1449 0.024       .   A
C1447     C1448 0.029       .   A
C1447     H1450 0.024       .   A
C1448     H1451 0.024       .   A
C1452     H1453 0.024       .   A
C1452     H1454 0.024       .   A
C1452     H1455 0.024       .   A
C1452     O1456 0.032       .   A
C1351     C1352 0.029       .   A
C1351     C1356 0.030       .   A
C1352     C1353 0.029       .   A
C1352     H1359 0.024       .   A
C1353     C1354 0.030       .   A
C1353     H1358 0.024       .   A
C1354     C1355 0.031       .   A
C1354     C1357 0.030       .   A
C1355     C1356 0.030       .   A
C1355     C1361 0.030       .   A
C1356     C1360 0.030       .   A
C1357     C1369 0.030       .   A
C1357     C1373 0.030       .   A
C1360     C1363 0.029       .   A
C1360     H1367 0.024       .   A
C1361     C1362 0.029       .   A
C1361     O1364 0.029       .   A
C1362     C1363 0.029       .   A
C1362     H1365 0.024       .   A
C1363     H1366 0.024       .   A
O1364     H1368 0.022       .   A
C1369     C1370 0.029       .   A
C1369     H1376 0.024       .   A
C1370     C1371 0.030       .   A
C1370     H1375 0.024       .   A
C1371     C1372 0.030       .   A
C1371     C1374 0.030       .   A
C1372     C1373 0.030       .   A
C1372     C1378 0.030       .   A
C1373     C1377 0.030       .   A
C1374     C1385 0.030       .   A
C1374     C1389 0.030       .   A
C1377     C1380 0.029       .   A
C1377     H1384 0.024       .   A
C1378     C1379 0.029       .   A
C1378     H1381 0.024       .   A
C1379     C1380 0.029       .   A
C1379     H1382 0.024       .   A
C1380     H1383 0.024       .   A
C1385     C1386 0.029       .   A
C1385     H1391 0.024       .   A
C1386     C1387 0.029       .   A
C1386     H1390 0.024       .   A
C1387     C1388 0.030       .   A
C1388     C1389 0.030       .   A
C1388     C1393 0.030       .   A
C1389     C1392 0.030       .   A
C1392     C1395 0.030       .   A
C1392     O1403 0.030       .   A
C1393     C1394 0.029       .   A
C1393     H1396 0.024       .   A
C1394     C1395 0.029       .   A
C1394     H1397 0.024       .   A
C1395     H1398 0.024       .   A
C1399     H1400 0.024       .   A
C1399     H1401 0.024       .   A
C1399     H1402 0.024       .   A
C1399     O1403 0.032       .   A
C1298     C1299 0.029       .   A
C1298     C1303 0.030       .   A
C1299     C1300 0.029       .   A
C1299     H1306 0.024       .   A
C1300     C1301 0.030       .   A
C1300     H1305 0.024       .   A
C1301     C1302 0.031       .   A
C1301     C1304 0.030       .   A
C1302     C1303 0.030       .   A
C1302     C1308 0.030       .   A
C1303     C1307 0.030       .   A
C1304     C1316 0.030       .   A
C1304     C1320 0.030       .   A
C1307     C1310 0.029       .   A
C1307     H1314 0.024       .   A
C1308     C1309 0.029       .   A
C1308     O1311 0.029       .   A
C1309     C1310 0.029       .   A
C1309     H1312 0.024       .   A
C1310     H1313 0.024       .   A
O1311     H1315 0.022       .   A
C1316     C1317 0.029       .   A
C1316     H1323 0.024       .   A
C1317     C1318 0.030       .   A
C1317     H1322 0.024       .   A
C1318     C1319 0.030       .   A
C1318     C1321 0.030       .   A
C1319     C1320 0.030       .   A
C1319     C1325 0.030       .   A
C1320     C1324 0.030       .   A
C1321     C1332 0.030       .   A
C1321     C1336 0.030       .   A
C1324     C1327 0.029       .   A
C1324     H1331 0.024       .   A
C1325     C1326 0.029       .   A
C1325     H1328 0.024       .   A
C1326     C1327 0.029       .   A
C1326     H1329 0.024       .   A
C1327     H1330 0.024       .   A
C1332     C1333 0.029       .   A
C1332     H1338 0.024       .   A
C1333     C1334 0.029       .   A
C1333     H1337 0.024       .   A
C1334     C1335 0.030       .   A
C1335     C1336 0.030       .   A
C1335     C1340 0.030       .   A
C1336     C1339 0.030       .   A
C1339     C1342 0.030       .   A
C1339     O1350 0.030       .   A
C1340     C1341 0.029       .   A
C1340     H1343 0.024       .   A
C1341     C1342 0.029       .   A
C1341     H1344 0.024       .   A
C1342     H1345 0.024       .   A
C1346     H1347 0.024       .   A
C1346     H1348 0.024       .   A
C1346     H1349 0.024       .   A
C1346     O1350 0.032       .   A
C1245     C1246 0.029       .   A
C1245     C1250 0.030       .   A
C1246     C1247 0.029       .   A
C1246     H1253 0.024       .   A
C1247     C1248 0.030       .   A
C1247     H1252 0.024       .   A
C1248     C1249 0.031       .   A
C1248     C1251 0.030       .   A
C1249     C1250 0.030       .   A
C1249     C1255 0.030       .   A
C1250     C1254 0.030       .   A
C1251     C1263 0.030       .   A
C1251     C1267 0.030       .   A
C1254     C1257 0.029       .   A
C1254     H1261 0.024       .   A
C1255     C1256 0.029       .   A
C1255     O1258 0.029       .   A
C1256     C1257 0.029       .   A
C1256     H1259 0.024       .   A
C1257     H1260 0.024       .   A
O1258     H1262 0.022       .   A
C1263     C1264 0.029       .   A
C1263     H1270 0.024       .   A
C1264     C1265 0.030       .   A
C1264     H1269 0.024       .   A
C1265     C1266 0.030       .   A
C1265     C1268 0.030       .   A
C1266     C1267 0.030       .   A
C1266     C1272 0.030       .   A
C1267     C1271 0.030       .   A
C1268     C1279 0.030       .   A
C1268     C1283 0.030       .   A
C1271     C1274 0.029       .   A
C1271     H1278 0.024       .   A
C1272     C1273 0.029       .   A
C1272     H1275 0.024       .   A
C1273     C1274 0.029       .   A
C1273     H1276 0.024       .   A
C1274     H1277 0.024       .   A
C1279     C1280 0.029       .   A
C1279     H1285 0.024       .   A
C1280     C1281 0.029       .   A
C1280     H1284 0.024       .   A
C1281     C1282 0.030       .   A
C1282     C1283 0.030       .   A
C1282     C1287 0.030       .   A
C1283     C1286 0.030       .   A
C1286     C1289 0.030       .   A
C1286     O1297 0.030       .   A
C1287     C1288 0.029       .   A
C1287     H1290 0.024       .   A
C1288     C1289 0.029       .   A
C1288     H1291 0.024       .   A
C1289     H1292 0.024       .   A
C1293     H1294 0.024       .   A
C1293     H1295 0.024       .   A
C1293     H1296 0.024       .   A
C1293     O1297 0.032       .   A
C1192     C1193 0.029       .   A
C1192     C1197 0.030       .   A
C1193     C1194 0.029       .   A
C1193     H1200 0.024       .   A
C1194     C1195 0.030       .   A
C1194     H1199 0.024       .   A
C1195     C1196 0.031       .   A
C1195     C1198 0.030       .   A
C1196     C1197 0.030       .   A
C1196     C1202 0.030       .   A
C1197     C1201 0.030       .   A
C1198     C1210 0.030       .   A
C1198     C1214 0.030       .   A
C1201     C1204 0.029       .   A
C1201     H1208 0.024       .   A
C1202     C1203 0.029       .   A
C1202     O1205 0.029       .   A
C1203     C1204 0.029       .   A
C1203     H1206 0.024       .   A
C1204     H1207 0.024       .   A
O1205     H1209 0.022       .   A
C1210     C1211 0.029       .   A
C1210     H1217 0.024       .   A
C1211     C1212 0.030       .   A
C1211     H1216 0.024       .   A
C1212     C1213 0.030       .   A
C1212     C1215 0.030       .   A
C1213     C1214 0.030       .   A
C1213     C1219 0.030       .   A
C1214     C1218 0.030       .   A
C1215     C1226 0.030       .   A
C1215     C1230 0.030       .   A
C1218     C1221 0.029       .   A
C1218     H1225 0.024       .   A
C1219     C1220 0.029       .   A
C1219     H1222 0.024       .   A
C1220     C1221 0.029       .   A
C1220     H1223 0.024       .   A
C1221     H1224 0.024       .   A
C1226     C1227 0.029       .   A
C1226     H1232 0.024       .   A
C1227     C1228 0.029       .   A
C1227     H1231 0.024       .   A
C1228     C1229 0.030       .   A
C1229     C1230 0.030       .   A
C1229     C1234 0.030       .   A
C1230     C1233 0.030       .   A
C1233     C1236 0.030       .   A
C1233     O1244 0.030       .   A
C1234     C1235 0.029       .   A
C1234     H1237 0.024       .   A
C1235     C1236 0.029       .   A
C1235     H1238 0.024       .   A
C1236     H1239 0.024       .   A
C1240     H1241 0.024       .   A
C1240     H1242 0.024       .   A
C1240     H1243 0.024       .   A
C1240     O1244 0.032       .   A
C1139     C1140 0.029       .   A
C1139     C1144 0.030       .   A
C1140     C1141 0.029       .   A
C1140     H1147 0.024       .   A
C1141     C1142 0.030       .   A
C1141     H1146 0.024       .   A
C1142     C1143 0.031       .   A
C1142     C1145 0.030       .   A
C1143     C1144 0.030       .   A
C1143     C1149 0.030       .   A
C1144     C1148 0.030       .   A
C1145     C1157 0.030       .   A
C1145     C1161 0.030       .   A
C1148     C1151 0.029       .   A
C1148     H1155 0.024       .   A
C1149     C1150 0.029       .   A
C1149     O1152 0.029       .   A
C1150     C1151 0.029       .   A
C1150     H1153 0.024       .   A
C1151     H1154 0.024       .   A
O1152     H1156 0.022       .   A
C1157     C1158 0.029       .   A
C1157     H1164 0.024       .   A
C1158     C1159 0.030       .   A
C1158     H1163 0.024       .   A
C1159     C1160 0.030       .   A
C1159     C1162 0.030       .   A
C1160     C1161 0.030       .   A
C1160     C1166 0.030       .   A
C1161     C1165 0.030       .   A
C1162     C1173 0.030       .   A
C1162     C1177 0.030       .   A
C1165     C1168 0.029       .   A
C1165     H1172 0.024       .   A
C1166     C1167 0.029       .   A
C1166     H1169 0.024       .   A
C1167     C1168 0.029       .   A
C1167     H1170 0.024       .   A
C1168     H1171 0.024       .   A
C1173     C1174 0.029       .   A
C1173     H1179 0.024       .   A
C1174     C1175 0.029       .   A
C1174     H1178 0.024       .   A
C1175     C1176 0.030       .   A
C1176     C1177 0.030       .   A
C1176     C1181 0.030       .   A
C1177     C1180 0.030       .   A
C1180     C1183 0.030       .   A
C1180     O1191 0.030       .   A
C1181     C1182 0.029       .   A
C1181     H1184 0.024       .   A
C1182     C1183 0.029       .   A
C1182     H1185 0.024       .   A
C1183     H1186 0.024       .   A
C1187     H1188 0.024       .   A
C1187     H1189 0.024       .   A
C1187     H1190 0.024       .   A
C1187     O1191 0.032       .   A
C1086     C1087 0.029       .   A
C1086     C1091 0.030       .   A
C1087     C1088 0.029       .   A
C1087     H1094 0.024       .   A
C1088     C1089 0.030       .   A
C1088     H1093 0.024       .   A
C1089     C1090 0.031       .   A
C1089     C1092 0.030       .   A
C1090     C1091 0.030       .   A
C1090     C1096 0.030       .   A
C1091     C1095 0.030       .   A
C1092     C1104 0.030       .   A
C1092     C1108 0.030       .   A
C1095     C1098 0.029       .   A
C1095     H1102 0.024       .   A
C1096     C1097 0.029       .   A
C1096     O1099 0.029       .   A
C1097     C1098 0.029       .   A
C1097     H1100 0.024       .   A
C1098     H1101 0.024       .   A
O1099     H1103 0.022       .   A
C1104     C1105 0.029       .   A
C1104     H1111 0.024       .   A
C1105     C1106 0.030       .   A
C1105     H1110 0.024       .   A
C1106     C1107 0.030       .   A
C1106     C1109 0.030       .   A
C1107     C1108 0.030       .   A
C1107     C1113 0.030       .   A
C1108     C1112 0.030       .   A
C1109     C1120 0.030       .   A
C1109     C1124 0.030       .   A
C1112     C1115 0.029       .   A
C1112     H1119 0.024       .   A
C1113     C1114 0.029       .   A
C1113     H1116 0.024       .   A
C1114     C1115 0.029       .   A
C1114     H1117 0.024       .   A
C1115     H1118 0.024       .   A
C1120     C1121 0.029       .   A
C1120     H1126 0.024       .   A
C1121     C1122 0.029       .   A
C1121     H1125 0.024       .   A
C1122     C1123 0.030       .   A
C1123     C1124 0.030       .   A
C1123     C1128 0.030       .   A
C1124     C1127 0.030       .   A
C1127     C1130 0.030       .   A
C1127     O1138 0.030       .   A
C1128     C1129 0.029       .   A
C1128     H1131 0.024       .   A
C1129     C1130 0.029       .   A
C1129     H1132 0.024       .   A
C1130     H1133 0.024       .   A
C1134     H1135 0.024       .   A
C1134     H1136 0.024       .   A
C1134     H1137 0.024       .   A
C1134     O1138 0.032       .   A
C1033     C1034 0.029       .   A
C1033     C1038 0.030       .   A
C1034     C1035 0.029       .   A
C1034     H1041 0.024       .   A
C1035     C1036 0.030       .   A
C1035     H1040 0.024       .   A
C1036     C1037 0.031       .   A
C1036     C1039 0.030       .   A
C1037     C1038 0.030       .   A
C1037     C1043 0.030       .   A
C1038     C1042 0.030       .   A
C1039     C1051 0.030       .   A
C1039     C1055 0.030       .   A
C1042     C1045 0.029       .   A
C1042     H1049 0.024       .   A
C1043     C1044 0.029       .   A
C1043     O1046 0.029       .   A
C1044     C1045 0.029       .   A
C1044     H1047 0.024       .   A
C1045     H1048 0.024       .   A
O1046     H1050 0.022       .   A
C1051     C1052 0.029       .   A
C1051     H1058 0.024       .   A
C1052     C1053 0.030       .   A
C1052     H1057 0.024       .   A
C1053     C1054 0.030       .   A
C1053     C1056 0.030       .   A
C1054     C1055 0.030       .   A
C1054     C1060 0.030       .   A
C1055     C1059 0.030       .   A
C1056     C1067 0.030       .   A
C1056     C1071 0.030       .   A
C1059     C1062 0.029       .   A
C1059     H1066 0.024       .   A
C1060     C1061 0.029       .   A
C1060     H1063 0.024       .   A
C1061     C1062 0.029       .   A
C1061     H1064 0.024       .   A
C1062     H1065 0.024       .   A
C1067     C1068 0.029       .   A
C1067     H1073 0.024       .   A
C1068     C1069 0.029       .   A
C1068     H1072 0.024       .   A
C1069     C1070 0.030       .   A
C1070     C1071 0.030       .   A
C1070     C1075 0.030       .   A
C1071     C1074 0.030       .   A
C1074     C1077 0.030       .   A
C1074     O1085 0.030       .   A
C1075     C1076 0.029       .   A
C1075     H1078 0.024       .   A
C1076     C1077 0.029       .   A
C1076     H1079 0.024       .   A
C1077     H1080 0.024       .   A
C1081     H1082 0.024       .   A
C1081     H1083 0.024       .   A
C1081     H1084 0.024       .   A
C1081     O1085 0.032       .   A
C980       C981 0.029       .   A
C980       C985 0.030       .   A
C981       C982 0.029       .   A
C981       H988 0.024       .   A
C982       C983 0.030       .   A
C982       H987 0.024       .   A
C983       C984 0.031       .   A
C983       C986 0.030       .   A
C984       C985 0.030       .   A
C984       C990 0.030       .   A
C985       C989 0.030       .   A
C986       C998 0.030       .   A
C986      C1002 0.030       .   A
C989       C992 0.029       .   A
C989       H996 0.024       .   A
C990       C991 0.029       .   A
C990       O993 0.029       .   A
C991       C992 0.029       .   A
C991       H994 0.024       .   A
C992       H995 0.024       .   A
O993       H997 0.022       .   A
C998       C999 0.029       .   A
C998      H1005 0.024       .   A
C999      C1000 0.030       .   A
C999      H1004 0.024       .   A
C1000     C1001 0.030       .   A
C1000     C1003 0.030       .   A
C1001     C1002 0.030       .   A
C1001     C1007 0.030       .   A
C1002     C1006 0.030       .   A
C1003     C1014 0.030       .   A
C1003     C1018 0.030       .   A
C1006     C1009 0.029       .   A
C1006     H1013 0.024       .   A
C1007     C1008 0.029       .   A
C1007     H1010 0.024       .   A
C1008     C1009 0.029       .   A
C1008     H1011 0.024       .   A
C1009     H1012 0.024       .   A
C1014     C1015 0.029       .   A
C1014     H1020 0.024       .   A
C1015     C1016 0.029       .   A
C1015     H1019 0.024       .   A
C1016     C1017 0.030       .   A
C1017     C1018 0.030       .   A
C1017     C1022 0.030       .   A
C1018     C1021 0.030       .   A
C1021     C1024 0.030       .   A
C1021     O1032 0.030       .   A
C1022     C1023 0.029       .   A
C1022     H1025 0.024       .   A
C1023     C1024 0.029       .   A
C1023     H1026 0.024       .   A
C1024     H1027 0.024       .   A
C1028     H1029 0.024       .   A
C1028     H1030 0.024       .   A
C1028     H1031 0.024       .   A
C1028     O1032 0.032       .   A
C927       C928 0.029       .   A
C927       C932 0.030       .   A
C928       C929 0.029       .   A
C928       H935 0.024       .   A
C929       C930 0.030       .   A
C929       H934 0.024       .   A
C930       C931 0.031       .   A
C930       C933 0.030       .   A
C931       C932 0.030       .   A
C931       C937 0.030       .   A
C932       C936 0.030       .   A
C933       C945 0.030       .   A
C933       C949 0.030       .   A
C936       C939 0.029       .   A
C936       H943 0.024       .   A
C937       C938 0.029       .   A
C937       O940 0.029       .   A
C938       C939 0.029       .   A
C938       H941 0.024       .   A
C939       H942 0.024       .   A
O940       H944 0.022       .   A
C945       C946 0.029       .   A
C945       H952 0.024       .   A
C946       C947 0.030       .   A
C946       H951 0.024       .   A
C947       C948 0.030       .   A
C947       C950 0.030       .   A
C948       C949 0.030       .   A
C948       C954 0.030       .   A
C949       C953 0.030       .   A
C950       C961 0.030       .   A
C950       C965 0.030       .   A
C953       C956 0.029       .   A
C953       H960 0.024       .   A
C954       C955 0.029       .   A
C954       H957 0.024       .   A
C955       C956 0.029       .   A
C955       H958 0.024       .   A
C956       H959 0.024       .   A
C961       C962 0.029       .   A
C961       H967 0.024       .   A
C962       C963 0.029       .   A
C962       H966 0.024       .   A
C963       C964 0.030       .   A
C964       C965 0.030       .   A
C964       C969 0.030       .   A
C965       C968 0.030       .   A
C968       C971 0.030       .   A
C968       O979 0.030       .   A
C969       C970 0.029       .   A
C969       H972 0.024       .   A
C970       C971 0.029       .   A
C970       H973 0.024       .   A
C971       H974 0.024       .   A
C975       H976 0.024       .   A
C975       H977 0.024       .   A
C975       H978 0.024       .   A
C975       O979 0.032       .   A
C874       C875 0.029       .   A
C874       C879 0.030       .   A
C875       C876 0.029       .   A
C875       H882 0.024       .   A
C876       C877 0.030       .   A
C876       H881 0.024       .   A
C877       C878 0.031       .   A
C877       C880 0.030       .   A
C878       C879 0.030       .   A
C878       C884 0.030       .   A
C879       C883 0.030       .   A
C880       C892 0.030       .   A
C880       C896 0.030       .   A
C883       C886 0.029       .   A
C883       H890 0.024       .   A
C884       C885 0.029       .   A
C884       O887 0.029       .   A
C885       C886 0.029       .   A
C885       H888 0.024       .   A
C886       H889 0.024       .   A
O887       H891 0.022       .   A
C892       C893 0.029       .   A
C892       H899 0.024       .   A
C893       C894 0.030       .   A
C893       H898 0.024       .   A
C894       C895 0.030       .   A
C894       C897 0.030       .   A
C895       C896 0.030       .   A
C895       C901 0.030       .   A
C896       C900 0.030       .   A
C897       C908 0.030       .   A
C897       C912 0.030       .   A
C900       C903 0.029       .   A
C900       H907 0.024       .   A
C901       C902 0.029       .   A
C901       H904 0.024       .   A
C902       C903 0.029       .   A
C902       H905 0.024       .   A
C903       H906 0.024       .   A
C908       C909 0.029       .   A
C908       H914 0.024       .   A
C909       C910 0.029       .   A
C909       H913 0.024       .   A
C910       C911 0.030       .   A
C911       C912 0.030       .   A
C911       C916 0.030       .   A
C912       C915 0.030       .   A
C915       C918 0.030       .   A
C915       O926 0.030       .   A
C916       C917 0.029       .   A
C916       H919 0.024       .   A
C917       C918 0.029       .   A
C917       H920 0.024       .   A
C918       H921 0.024       .   A
C922       H923 0.024       .   A
C922       H924 0.024       .   A
C922       H925 0.024       .   A
C922       O926 0.032       .   A
C821       C822 0.029       .   A
C821       C826 0.030       .   A
C822       C823 0.029       .   A
C822       H829 0.024       .   A
C823       C824 0.030       .   A
C823       H828 0.024       .   A
C824       C825 0.031       .   A
C824       C827 0.030       .   A
C825       C826 0.030       .   A
C825       C831 0.030       .   A
C826       C830 0.030       .   A
C827       C839 0.030       .   A
C827       C843 0.030       .   A
C830       C833 0.029       .   A
C830       H837 0.024       .   A
C831       C832 0.029       .   A
C831       O834 0.029       .   A
C832       C833 0.029       .   A
C832       H835 0.024       .   A
C833       H836 0.024       .   A
O834       H838 0.022       .   A
C839       C840 0.029       .   A
C839       H846 0.024       .   A
C840       C841 0.030       .   A
C840       H845 0.024       .   A
C841       C842 0.030       .   A
C841       C844 0.030       .   A
C842       C843 0.030       .   A
C842       C848 0.030       .   A
C843       C847 0.030       .   A
C844       C855 0.030       .   A
C844       C859 0.030       .   A
C847       C850 0.029       .   A
C847       H854 0.024       .   A
C848       C849 0.029       .   A
C848       H851 0.024       .   A
C849       C850 0.029       .   A
C849       H852 0.024       .   A
C850       H853 0.024       .   A
C855       C856 0.029       .   A
C855       H861 0.024       .   A
C856       C857 0.029       .   A
C856       H860 0.024       .   A
C857       C858 0.030       .   A
C858       C859 0.030       .   A
C858       C863 0.030       .   A
C859       C862 0.030       .   A
C862       C865 0.030       .   A
C862       O873 0.030       .   A
C863       C864 0.029       .   A
C863       H866 0.024       .   A
C864       C865 0.029       .   A
C864       H867 0.024       .   A
C865       H868 0.024       .   A
C869       H870 0.024       .   A
C869       H871 0.024       .   A
C869       H872 0.024       .   A
C869       O873 0.032       .   A
C768       C769 0.029       .   A
C768       C773 0.030       .   A
C769       C770 0.029       .   A
C769       H776 0.024       .   A
C770       C771 0.030       .   A
C770       H775 0.024       .   A
C771       C772 0.031       .   A
C771       C774 0.030       .   A
C772       C773 0.030       .   A
C772       C778 0.030       .   A
C773       C777 0.030       .   A
C774       C786 0.030       .   A
C774       C790 0.030       .   A
C777       C780 0.029       .   A
C777       H784 0.024       .   A
C778       C779 0.029       .   A
C778       O781 0.029       .   A
C779       C780 0.029       .   A
C779       H782 0.024       .   A
C780       H783 0.024       .   A
O781       H785 0.022       .   A
C786       C787 0.029       .   A
C786       H793 0.024       .   A
C787       C788 0.030       .   A
C787       H792 0.024       .   A
C788       C789 0.030       .   A
C788       C791 0.030       .   A
C789       C790 0.030       .   A
C789       C795 0.030       .   A
C790       C794 0.030       .   A
C791       C802 0.030       .   A
C791       C806 0.030       .   A
C794       C797 0.029       .   A
C794       H801 0.024       .   A
C795       C796 0.029       .   A
C795       H798 0.024       .   A
C796       C797 0.029       .   A
C796       H799 0.024       .   A
C797       H800 0.024       .   A
C802       C803 0.029       .   A
C802       H808 0.024       .   A
C803       C804 0.029       .   A
C803       H807 0.024       .   A
C804       C805 0.030       .   A
C805       C806 0.030       .   A
C805       C810 0.030       .   A
C806       C809 0.030       .   A
C809       C812 0.030       .   A
C809       O820 0.030       .   A
C810       C811 0.029       .   A
C810       H813 0.024       .   A
C811       C812 0.029       .   A
C811       H814 0.024       .   A
C812       H815 0.024       .   A
C816       H817 0.024       .   A
C816       H818 0.024       .   A
C816       H819 0.024       .   A
C816       O820 0.032       .   A
C715       C716 0.029       .   A
C715       C720 0.030       .   A
C716       C717 0.029       .   A
C716       H723 0.024       .   A
C717       C718 0.030       .   A
C717       H722 0.024       .   A
C718       C719 0.031       .   A
C718       C721 0.030       .   A
C719       C720 0.030       .   A
C719       C725 0.030       .   A
C720       C724 0.030       .   A
C721       C733 0.030       .   A
C721       C737 0.030       .   A
C724       C727 0.029       .   A
C724       H731 0.024       .   A
C725       C726 0.029       .   A
C725       O728 0.029       .   A
C726       C727 0.029       .   A
C726       H729 0.024       .   A
C727       H730 0.024       .   A
O728       H732 0.022       .   A
C733       C734 0.029       .   A
C733       H740 0.024       .   A
C734       C735 0.030       .   A
C734       H739 0.024       .   A
C735       C736 0.030       .   A
C735       C738 0.030       .   A
C736       C737 0.030       .   A
C736       C742 0.030       .   A
C737       C741 0.030       .   A
C738       C749 0.030       .   A
C738       C753 0.030       .   A
C741       C744 0.029       .   A
C741       H748 0.024       .   A
C742       C743 0.029       .   A
C742       H745 0.024       .   A
C743       C744 0.029       .   A
C743       H746 0.024       .   A
C744       H747 0.024       .   A
C749       C750 0.029       .   A
C749       H755 0.024       .   A
C750       C751 0.029       .   A
C750       H754 0.024       .   A
C751       C752 0.030       .   A
C752       C753 0.030       .   A
C752       C757 0.030       .   A
C753       C756 0.030       .   A
C756       C759 0.030       .   A
C756       O767 0.030       .   A
C757       C758 0.029       .   A
C757       H760 0.024       .   A
C758       C759 0.029       .   A
C758       H761 0.024       .   A
C759       H762 0.024       .   A
C763       H764 0.024       .   A
C763       H765 0.024       .   A
C763       H766 0.024       .   A
C763       O767 0.032       .   A
C662       C663 0.029       .   A
C662       C667 0.030       .   A
C663       C664 0.029       .   A
C663       H670 0.024       .   A
C664       C665 0.030       .   A
C664       H669 0.024       .   A
C665       C666 0.031       .   A
C665       C668 0.030       .   A
C666       C667 0.030       .   A
C666       C672 0.030       .   A
C667       C671 0.030       .   A
C668       C680 0.030       .   A
C668       C684 0.030       .   A
C671       C674 0.029       .   A
C671       H678 0.024       .   A
C672       C673 0.029       .   A
C672       O675 0.029       .   A
C673       C674 0.029       .   A
C673       H676 0.024       .   A
C674       H677 0.024       .   A
O675       H679 0.022       .   A
C680       C681 0.029       .   A
C680       H687 0.024       .   A
C681       C682 0.030       .   A
C681       H686 0.024       .   A
C682       C683 0.030       .   A
C682       C685 0.030       .   A
C683       C684 0.030       .   A
C683       C689 0.030       .   A
C684       C688 0.030       .   A
C685       C696 0.030       .   A
C685       C700 0.030       .   A
C688       C691 0.029       .   A
C688       H695 0.024       .   A
C689       C690 0.029       .   A
C689       H692 0.024       .   A
C690       C691 0.029       .   A
C690       H693 0.024       .   A
C691       H694 0.024       .   A
C696       C697 0.029       .   A
C696       H702 0.024       .   A
C697       C698 0.029       .   A
C697       H701 0.024       .   A
C698       C699 0.030       .   A
C699       C700 0.030       .   A
C699       C704 0.030       .   A
C700       C703 0.030       .   A
C703       C706 0.030       .   A
C703       O714 0.030       .   A
C704       C705 0.029       .   A
C704       H707 0.024       .   A
C705       C706 0.029       .   A
C705       H708 0.024       .   A
C706       H709 0.024       .   A
C710       H711 0.024       .   A
C710       H712 0.024       .   A
C710       H713 0.024       .   A
C710       O714 0.032       .   A
C609       C610 0.029       .   A
C609       C614 0.030       .   A
C610       C611 0.029       .   A
C610       H617 0.024       .   A
C611       C612 0.030       .   A
C611       H616 0.024       .   A
C612       C613 0.031       .   A
C612       C615 0.030       .   A
C613       C614 0.030       .   A
C613       C619 0.030       .   A
C614       C618 0.030       .   A
C615       C627 0.030       .   A
C615       C631 0.030       .   A
C618       C621 0.029       .   A
C618       H625 0.024       .   A
C619       C620 0.029       .   A
C619       O622 0.029       .   A
C620       C621 0.029       .   A
C620       H623 0.024       .   A
C621       H624 0.024       .   A
O622       H626 0.022       .   A
C627       C628 0.029       .   A
C627       H634 0.024       .   A
C628       C629 0.030       .   A
C628       H633 0.024       .   A
C629       C630 0.030       .   A
C629       C632 0.030       .   A
C630       C631 0.030       .   A
C630       C636 0.030       .   A
C631       C635 0.030       .   A
C632       C643 0.030       .   A
C632       C647 0.030       .   A
C635       C638 0.029       .   A
C635       H642 0.024       .   A
C636       C637 0.029       .   A
C636       H639 0.024       .   A
C637       C638 0.029       .   A
C637       H640 0.024       .   A
C638       H641 0.024       .   A
C643       C644 0.029       .   A
C643       H649 0.024       .   A
C644       C645 0.029       .   A
C644       H648 0.024       .   A
C645       C646 0.030       .   A
C646       C647 0.030       .   A
C646       C651 0.030       .   A
C647       C650 0.030       .   A
C650       C653 0.030       .   A
C650       O661 0.030       .   A
C651       C652 0.029       .   A
C651       H654 0.024       .   A
C652       C653 0.029       .   A
C652       H655 0.024       .   A
C653       H656 0.024       .   A
C657       H658 0.024       .   A
C657       H659 0.024       .   A
C657       H660 0.024       .   A
C657       O661 0.032       .   A
C556       C557 0.029       .   A
C556       C561 0.030       .   A
C557       C558 0.029       .   A
C557       H564 0.024       .   A
C558       C559 0.030       .   A
C558       H563 0.024       .   A
C559       C560 0.031       .   A
C559       C562 0.030       .   A
C560       C561 0.030       .   A
C560       C566 0.030       .   A
C561       C565 0.030       .   A
C562       C574 0.030       .   A
C562       C578 0.030       .   A
C565       C568 0.029       .   A
C565       H572 0.024       .   A
C566       C567 0.029       .   A
C566       O569 0.029       .   A
C567       C568 0.029       .   A
C567       H570 0.024       .   A
C568       H571 0.024       .   A
O569       H573 0.022       .   A
C574       C575 0.029       .   A
C574       H581 0.024       .   A
C575       C576 0.030       .   A
C575       H580 0.024       .   A
C576       C577 0.030       .   A
C576       C579 0.030       .   A
C577       C578 0.030       .   A
C577       C583 0.030       .   A
C578       C582 0.030       .   A
C579       C590 0.030       .   A
C579       C594 0.030       .   A
C582       C585 0.029       .   A
C582       H589 0.024       .   A
C583       C584 0.029       .   A
C583       H586 0.024       .   A
C584       C585 0.029       .   A
C584       H587 0.024       .   A
C585       H588 0.024       .   A
C590       C591 0.029       .   A
C590       H596 0.024       .   A
C591       C592 0.029       .   A
C591       H595 0.024       .   A
C592       C593 0.030       .   A
C593       C594 0.030       .   A
C593       C598 0.030       .   A
C594       C597 0.030       .   A
C597       C600 0.030       .   A
C597       O608 0.030       .   A
C598       C599 0.029       .   A
C598       H601 0.024       .   A
C599       C600 0.029       .   A
C599       H602 0.024       .   A
C600       H603 0.024       .   A
C604       H605 0.024       .   A
C604       H606 0.024       .   A
C604       H607 0.024       .   A
C604       O608 0.032       .   A
C503       C504 0.029       .   A
C503       C508 0.030       .   A
C504       C505 0.029       .   A
C504       H511 0.024       .   A
C505       C506 0.030       .   A
C505       H510 0.024       .   A
C506       C507 0.031       .   A
C506       C509 0.030       .   A
C507       C508 0.030       .   A
C507       C513 0.030       .   A
C508       C512 0.030       .   A
C509       C521 0.030       .   A
C509       C525 0.030       .   A
C512       C515 0.029       .   A
C512       H519 0.024       .   A
C513       C514 0.029       .   A
C513       O516 0.029       .   A
C514       C515 0.029       .   A
C514       H517 0.024       .   A
C515       H518 0.024       .   A
O516       H520 0.022       .   A
C521       C522 0.029       .   A
C521       H528 0.024       .   A
C522       C523 0.030       .   A
C522       H527 0.024       .   A
C523       C524 0.030       .   A
C523       C526 0.030       .   A
C524       C525 0.030       .   A
C524       C530 0.030       .   A
C525       C529 0.030       .   A
C526       C537 0.030       .   A
C526       C541 0.030       .   A
C529       C532 0.029       .   A
C529       H536 0.024       .   A
C530       C531 0.029       .   A
C530       H533 0.024       .   A
C531       C532 0.029       .   A
C531       H534 0.024       .   A
C532       H535 0.024       .   A
C537       C538 0.029       .   A
C537       H543 0.024       .   A
C538       C539 0.029       .   A
C538       H542 0.024       .   A
C539       C540 0.030       .   A
C540       C541 0.030       .   A
C540       C545 0.030       .   A
C541       C544 0.030       .   A
C544       C547 0.030       .   A
C544       O555 0.030       .   A
C545       C546 0.029       .   A
C545       H548 0.024       .   A
C546       C547 0.029       .   A
C546       H549 0.024       .   A
C547       H550 0.024       .   A
C551       H552 0.024       .   A
C551       H553 0.024       .   A
C551       H554 0.024       .   A
C551       O555 0.032       .   A
C450       C451 0.029       .   A
C450       C455 0.030       .   A
C451       C452 0.029       .   A
C451       H458 0.024       .   A
C452       C453 0.030       .   A
C452       H457 0.024       .   A
C453       C454 0.031       .   A
C453       C456 0.030       .   A
C454       C455 0.030       .   A
C454       C460 0.030       .   A
C455       C459 0.030       .   A
C456       C468 0.030       .   A
C456       C472 0.030       .   A
C459       C462 0.029       .   A
C459       H466 0.024       .   A
C460       C461 0.029       .   A
C460       O463 0.029       .   A
C461       C462 0.029       .   A
C461       H464 0.024       .   A
C462       H465 0.024       .   A
O463       H467 0.022       .   A
C468       C469 0.029       .   A
C468       H475 0.024       .   A
C469       C470 0.030       .   A
C469       H474 0.024       .   A
C470       C471 0.030       .   A
C470       C473 0.030       .   A
C471       C472 0.030       .   A
C471       C477 0.030       .   A
C472       C476 0.030       .   A
C473       C484 0.030       .   A
C473       C488 0.030       .   A
C476       C479 0.029       .   A
C476       H483 0.024       .   A
C477       C478 0.029       .   A
C477       H480 0.024       .   A
C478       C479 0.029       .   A
C478       H481 0.024       .   A
C479       H482 0.024       .   A
C484       C485 0.029       .   A
C484       H490 0.024       .   A
C485       C486 0.029       .   A
C485       H489 0.024       .   A
C486       C487 0.030       .   A
C487       C488 0.030       .   A
C487       C492 0.030       .   A
C488       C491 0.030       .   A
C491       C494 0.030       .   A
C491       O502 0.030       .   A
C492       C493 0.029       .   A
C492       H495 0.024       .   A
C493       C494 0.029       .   A
C493       H496 0.024       .   A
C494       H497 0.024       .   A
C498       H499 0.024       .   A
C498       H500 0.024       .   A
C498       H501 0.024       .   A
C498       O502 0.032       .   A
C397       C398 0.029       .   A
C397       C402 0.030       .   A
C398       C399 0.029       .   A
C398       H405 0.024       .   A
C399       C400 0.030       .   A
C399       H404 0.024       .   A
C400       C401 0.031       .   A
C400       C403 0.030       .   A
C401       C402 0.030       .   A
C401       C407 0.030       .   A
C402       C406 0.030       .   A
C403       C415 0.030       .   A
C403       C419 0.030       .   A
C406       C409 0.029       .   A
C406       H413 0.024       .   A
C407       C408 0.029       .   A
C407       O410 0.029       .   A
C408       C409 0.029       .   A
C408       H411 0.024       .   A
C409       H412 0.024       .   A
O410       H414 0.022       .   A
C415       C416 0.029       .   A
C415       H422 0.024       .   A
C416       C417 0.030       .   A
C416       H421 0.024       .   A
C417       C418 0.030       .   A
C417       C420 0.030       .   A
C418       C419 0.030       .   A
C418       C424 0.030       .   A
C419       C423 0.030       .   A
C420       C431 0.030       .   A
C420       C435 0.030       .   A
C423       C426 0.029       .   A
C423       H430 0.024       .   A
C424       C425 0.029       .   A
C424       H427 0.024       .   A
C425       C426 0.029       .   A
C425       H428 0.024       .   A
C426       H429 0.024       .   A
C431       C432 0.029       .   A
C431       H437 0.024       .   A
C432       C433 0.029       .   A
C432       H436 0.024       .   A
C433       C434 0.030       .   A
C434       C435 0.030       .   A
C434       C439 0.030       .   A
C435       C438 0.030       .   A
C438       C441 0.030       .   A
C438       O449 0.030       .   A
C439       C440 0.029       .   A
C439       H442 0.024       .   A
C440       C441 0.029       .   A
C440       H443 0.024       .   A
C441       H444 0.024       .   A
C445       H446 0.024       .   A
C445       H447 0.024       .   A
C445       H448 0.024       .   A
C445       O449 0.032       .   A
C344       C345 0.029       .   A
C344       C349 0.030       .   A
C345       C346 0.029       .   A
C345       H352 0.024       .   A
C346       C347 0.030       .   A
C346       H351 0.024       .   A
C347       C348 0.031       .   A
C347       C350 0.030       .   A
C348       C349 0.030       .   A
C348       C354 0.030       .   A
C349       C353 0.030       .   A
C350       C362 0.030       .   A
C350       C366 0.030       .   A
C353       C356 0.029       .   A
C353       H360 0.024       .   A
C354       C355 0.029       .   A
C354       O357 0.029       .   A
C355       C356 0.029       .   A
C355       H358 0.024       .   A
C356       H359 0.024       .   A
O357       H361 0.022       .   A
C362       C363 0.029       .   A
C362       H369 0.024       .   A
C363       C364 0.030       .   A
C363       H368 0.024       .   A
C364       C365 0.030       .   A
C364       C367 0.030       .   A
C365       C366 0.030       .   A
C365       C371 0.030       .   A
C366       C370 0.030       .   A
C367       C378 0.030       .   A
C367       C382 0.030       .   A
C370       C373 0.029       .   A
C370       H377 0.024       .   A
C371       C372 0.029       .   A
C371       H374 0.024       .   A
C372       C373 0.029       .   A
C372       H375 0.024       .   A
C373       H376 0.024       .   A
C378       C379 0.029       .   A
C378       H384 0.024       .   A
C379       C380 0.029       .   A
C379       H383 0.024       .   A
C380       C381 0.030       .   A
C381       C382 0.030       .   A
C381       C386 0.030       .   A
C382       C385 0.030       .   A
C385       C388 0.030       .   A
C385       O396 0.030       .   A
C386       C387 0.029       .   A
C386       H389 0.024       .   A
C387       C388 0.029       .   A
C387       H390 0.024       .   A
C388       H391 0.024       .   A
C392       H393 0.024       .   A
C392       H394 0.024       .   A
C392       H395 0.024       .   A
C392       O396 0.032       .   A
C291       C292 0.029       .   A
C291       C296 0.030       .   A
C292       C293 0.029       .   A
C292       H299 0.024       .   A
C293       C294 0.030       .   A
C293       H298 0.024       .   A
C294       C295 0.031       .   A
C294       C297 0.030       .   A
C295       C296 0.030       .   A
C295       C301 0.030       .   A
C296       C300 0.030       .   A
C297       C309 0.030       .   A
C297       C313 0.030       .   A
C300       C303 0.029       .   A
C300       H307 0.024       .   A
C301       C302 0.029       .   A
C301       O304 0.029       .   A
C302       C303 0.029       .   A
C302       H305 0.024       .   A
C303       H306 0.024       .   A
O304       H308 0.022       .   A
C309       C310 0.029       .   A
C309       H316 0.024       .   A
C310       C311 0.030       .   A
C310       H315 0.024       .   A
C311       C312 0.030       .   A
C311       C314 0.030       .   A
C312       C313 0.030       .   A
C312       C318 0.030       .   A
C313       C317 0.030       .   A
C314       C325 0.030       .   A
C314       C329 0.030       .   A
C317       C320 0.029       .   A
C317       H324 0.024       .   A
C318       C319 0.029       .   A
C318       H321 0.024       .   A
C319       C320 0.029       .   A
C319       H322 0.024       .   A
C320       H323 0.024       .   A
C325       C326 0.029       .   A
C325       H331 0.024       .   A
C326       C327 0.029       .   A
C326       H330 0.024       .   A
C327       C328 0.030       .   A
C328       C329 0.030       .   A
C328       C333 0.030       .   A
C329       C332 0.030       .   A
C332       C335 0.030       .   A
C332       O343 0.030       .   A
C333       C334 0.029       .   A
C333       H336 0.024       .   A
C334       C335 0.029       .   A
C334       H337 0.024       .   A
C335       H338 0.024       .   A
C339       H340 0.024       .   A
C339       H341 0.024       .   A
C339       H342 0.024       .   A
C339       O343 0.032       .   A
C238       C239 0.029       .   A
C238       C243 0.030       .   A
C239       C240 0.029       .   A
C239       H246 0.024       .   A
C240       C241 0.030       .   A
C240       H245 0.024       .   A
C241       C242 0.031       .   A
C241       C244 0.030       .   A
C242       C243 0.030       .   A
C242       C248 0.030       .   A
C243       C247 0.030       .   A
C244       C256 0.030       .   A
C244       C260 0.030       .   A
C247       C250 0.029       .   A
C247       H254 0.024       .   A
C248       C249 0.029       .   A
C248       O251 0.029       .   A
C249       C250 0.029       .   A
C249       H252 0.024       .   A
C250       H253 0.024       .   A
O251       H255 0.022       .   A
C256       C257 0.029       .   A
C256       H263 0.024       .   A
C257       C258 0.030       .   A
C257       H262 0.024       .   A
C258       C259 0.030       .   A
C258       C261 0.030       .   A
C259       C260 0.030       .   A
C259       C265 0.030       .   A
C260       C264 0.030       .   A
C261       C272 0.030       .   A
C261       C276 0.030       .   A
C264       C267 0.029       .   A
C264       H271 0.024       .   A
C265       C266 0.029       .   A
C265       H268 0.024       .   A
C266       C267 0.029       .   A
C266       H269 0.024       .   A
C267       H270 0.024       .   A
C272       C273 0.029       .   A
C272       H278 0.024       .   A
C273       C274 0.029       .   A
C273       H277 0.024       .   A
C274       C275 0.030       .   A
C275       C276 0.030       .   A
C275       C280 0.030       .   A
C276       C279 0.030       .   A
C279       C282 0.030       .   A
C279       O290 0.030       .   A
C280       C281 0.029       .   A
C280       H283 0.024       .   A
C281       C282 0.029       .   A
C281       H284 0.024       .   A
C282       H285 0.024       .   A
C286       H287 0.024       .   A
C286       H288 0.024       .   A
C286       H289 0.024       .   A
C286       O290 0.032       .   A
C185       C186 0.029       .   A
C185       C190 0.030       .   A
C186       C187 0.029       .   A
C186       H193 0.024       .   A
C187       C188 0.030       .   A
C187       H192 0.024       .   A
C188       C189 0.031       .   A
C188       C191 0.030       .   A
C189       C190 0.030       .   A
C189       C195 0.030       .   A
C190       C194 0.030       .   A
C191       C203 0.030       .   A
C191       C207 0.030       .   A
C194       C197 0.029       .   A
C194       H201 0.024       .   A
C195       C196 0.029       .   A
C195       O198 0.029       .   A
C196       C197 0.029       .   A
C196       H199 0.024       .   A
C197       H200 0.024       .   A
O198       H202 0.022       .   A
C203       C204 0.029       .   A
C203       H210 0.024       .   A
C204       C205 0.030       .   A
C204       H209 0.024       .   A
C205       C206 0.030       .   A
C205       C208 0.030       .   A
C206       C207 0.030       .   A
C206       C212 0.030       .   A
C207       C211 0.030       .   A
C208       C219 0.030       .   A
C208       C223 0.030       .   A
C211       C214 0.029       .   A
C211       H218 0.024       .   A
C212       C213 0.029       .   A
C212       H215 0.024       .   A
C213       C214 0.029       .   A
C213       H216 0.024       .   A
C214       H217 0.024       .   A
C219       C220 0.029       .   A
C219       H225 0.024       .   A
C220       C221 0.029       .   A
C220       H224 0.024       .   A
C221       C222 0.030       .   A
C222       C223 0.030       .   A
C222       C227 0.030       .   A
C223       C226 0.030       .   A
C226       C229 0.030       .   A
C226       O237 0.030       .   A
C227       C228 0.029       .   A
C227       H230 0.024       .   A
C228       C229 0.029       .   A
C228       H231 0.024       .   A
C229       H232 0.024       .   A
C233       H234 0.024       .   A
C233       H235 0.024       .   A
C233       H236 0.024       .   A
C233       O237 0.032       .   A
