data_pcu_v1-6c_Zn_1_Ch_1-79_fer_tobacco
_audit_creation_date              2021-02-03
_audit_creation_method            'tobacco_3.0'
_symmetry_space_group_name_H-M    'P1'
_symmetry_Int_Tables_number       1
_symmetry_cell_setting            triclinic
loop_
_symmetry_equiv_pos_as_xyz
  x,y,z
_cell_length_a                    55.40017557180144
_cell_length_b                    55.40017557180144
_cell_length_c                    55.40017557180144
_cell_angle_alpha                 90.0
_cell_angle_beta                  90.0
_cell_angle_gamma                 90.0
loop_
_atom_site_label
_atom_site_type_symbol
_atom_site_fract_x
_atom_site_fract_y
_atom_site_fract_z
_atom_site_charge
Zn1       Zn   -0.0202382030   -0.0202382030    0.0202382030          1.4972
Zn2       Zn    0.0202382030    0.0202382030    0.0202382030          1.4936
Zn3       Zn    0.0202382030   -0.0202382030   -0.0202382030          1.4911
Zn4       Zn   -0.0202382030    0.0202382030   -0.0202382030          1.4948
O5         O    0.0000000000    0.0000000000    0.0000000000         -2.2196
O6         O   -0.0148735991   -0.0148735991    0.0540900813         -1.1259
O7         O    0.0540900813    0.0148735991    0.0148735991         -1.1241
O8         O    0.0148735991   -0.0540900813   -0.0148735991         -1.1193
O9         O    0.0148735991    0.0148735991    0.0540900813         -1.1261
O10        O   -0.0148735991   -0.0540900813    0.0148735991         -1.1221
O11        O    0.0540900813   -0.0148735991   -0.0148735991         -1.1279
O12        O   -0.0148735991    0.0148735991   -0.0540900813         -1.1218
O13        O    0.0148735991    0.0540900813    0.0148735991         -1.1294
O14        O    0.0148735991   -0.0148735991   -0.0540900813         -1.1233
O15        O   -0.0148735991    0.0540900813   -0.0148735991         -1.1279
O16        O   -0.0540900813    0.0148735991   -0.0148735991          -1.127
O17        O   -0.0540900813   -0.0148735991    0.0148735991         -1.1249
C18        C   -0.0000000000   -0.0000000000    0.0646712752           0.393
C19        C    0.0646712752   -0.0000000000   -0.0000000000          0.3979
C20        C   -0.0000000000   -0.0646712752    0.0000000000          0.3875
C21        C    0.0000000000    0.0000000000   -0.0646712752          0.3912
C22        C    0.0000000000    0.0646712752   -0.0000000000          0.4026
C23        C   -0.0646712752    0.0000000000    0.0000000000          0.3931
Zn24      Zn    0.9797617970    0.0202382030    0.4797617970          1.4972
Zn25      Zn    1.0202382030   -0.0202382030    0.4797617970          1.4936
Zn26      Zn    1.0202382030    0.0202382030    0.5202382030          1.4911
Zn27      Zn    0.9797617970   -0.0202382030    0.5202382030          1.4948
O28        O    1.0000000000    0.0000000000    0.5000000000         -2.2196
O29        O    0.9851264009    0.0148735991    0.4459099187         -1.1259
O30        O    1.0540900813   -0.0148735991    0.4851264009         -1.1241
O31        O    1.0148735991    0.0540900813    0.5148735991         -1.1193
O32        O    1.0148735991   -0.0148735991    0.4459099187         -1.1261
O33        O    0.9851264009    0.0540900813    0.4851264009         -1.1221
O34        O    1.0540900813    0.0148735991    0.5148735991         -1.1279
O35        O    0.9851264009   -0.0148735991    0.5540900813         -1.1218
O36        O    1.0148735991   -0.0540900813    0.4851264009         -1.1294
O37        O    1.0148735991    0.0148735991    0.5540900813         -1.1233
O38        O    0.9851264009   -0.0540900813    0.5148735991         -1.1279
O39        O    0.9459099187   -0.0148735991    0.5148735991          -1.127
O40        O    0.9459099187    0.0148735991    0.4851264009         -1.1249
C41        C    1.0000000000    0.0000000000    0.4353287248           0.393
C42        C    1.0646712752    0.0000000000    0.5000000000          0.3979
C43        C    1.0000000000    0.0646712752    0.5000000000          0.3875
C44        C    1.0000000000    0.0000000000    0.5646712752          0.3912
C45        C    1.0000000000   -0.0646712752    0.5000000000          0.4026
C46        C    0.9353287248    0.0000000000    0.5000000000          0.3931
Zn47      Zn    1.0202382030    0.4797617970   -0.0202382030          1.4972
Zn48      Zn    0.9797617970    0.4797617970    0.0202382030          1.4936
Zn49      Zn    1.0202382030    0.5202382030    0.0202382030          1.4911
Zn50      Zn    0.9797617970    0.5202382030   -0.0202382030          1.4948
O51        O    1.0000000000    0.5000000000    0.0000000000         -2.2196
O52        O    1.0148735991    0.4459099187   -0.0148735991         -1.1259
O53        O    0.9851264009    0.4851264009    0.0540900813         -1.1241
O54        O    1.0540900813    0.5148735991    0.0148735991         -1.1193
O55        O    0.9851264009    0.4459099187    0.0148735991         -1.1261
O56        O    1.0540900813    0.4851264009   -0.0148735991         -1.1221
O57        O    1.0148735991    0.5148735991    0.0540900813         -1.1279
O58        O    0.9851264009    0.5540900813   -0.0148735991         -1.1218
O59        O    0.9459099187    0.4851264009    0.0148735991         -1.1294
O60        O    1.0148735991    0.5540900813    0.0148735991         -1.1233
O61        O    0.9459099187    0.5148735991   -0.0148735991         -1.1279
O62        O    0.9851264009    0.5148735991   -0.0540900813          -1.127
O63        O    1.0148735991    0.4851264009   -0.0540900813         -1.1249
C64        C    1.0000000000    0.4353287248    0.0000000000           0.393
C65        C    1.0000000000    0.5000000000    0.0646712752          0.3979
C66        C    1.0646712752    0.5000000000    0.0000000000          0.3875
C67        C    1.0000000000    0.5646712752    0.0000000000          0.3912
C68        C    0.9353287248    0.5000000000    0.0000000000          0.4026
C69        C    1.0000000000    0.5000000000   -0.0646712752          0.3931
Zn70      Zn    0.9797617970    0.4797617970    0.5202382030          1.4972
Zn71      Zn    1.0202382030    0.4797617970    0.4797617970          1.4936
Zn72      Zn    0.9797617970    0.5202382030    0.4797617970          1.4911
Zn73      Zn    1.0202382030    0.5202382030    0.5202382030          1.4948
O74        O    1.0000000000    0.5000000000    0.5000000000         -2.2196
O75        O    0.9851264009    0.4459099187    0.5148735991         -1.1259
O76        O    1.0148735991    0.4851264009    0.4459099187         -1.1241
O77        O    0.9459099187    0.5148735991    0.4851264009         -1.1193
O78        O    1.0148735991    0.4459099187    0.4851264009         -1.1261
O79        O    0.9459099187    0.4851264009    0.5148735991         -1.1221
O80        O    0.9851264009    0.5148735991    0.4459099187         -1.1279
O81        O    1.0148735991    0.5540900813    0.5148735991         -1.1218
O82        O    1.0540900813    0.4851264009    0.4851264009         -1.1294
O83        O    0.9851264009    0.5540900813    0.4851264009         -1.1233
O84        O    1.0540900813    0.5148735991    0.5148735991         -1.1279
O85        O    1.0148735991    0.5148735991    0.5540900813          -1.127
O86        O    0.9851264009    0.4851264009    0.5540900813         -1.1249
C87        C    1.0000000000    0.4353287248    0.5000000000           0.393
C88        C    1.0000000000    0.5000000000    0.4353287248          0.3979
C89        C    0.9353287248    0.5000000000    0.5000000000          0.3875
C90        C    1.0000000000    0.5646712752    0.5000000000          0.3912
C91        C    1.0646712752    0.5000000000    0.5000000000          0.4026
C92        C    1.0000000000    0.5000000000    0.5646712752          0.3931
Zn93      Zn    0.4797617970    0.9797617970   -0.0202382030          1.4972
Zn94      Zn    0.4797617970    1.0202382030    0.0202382030          1.4936
Zn95      Zn    0.5202382030    0.9797617970    0.0202382030          1.4911
Zn96      Zn    0.5202382030    1.0202382030   -0.0202382030          1.4948
O97        O    0.5000000000    1.0000000000    0.0000000000         -2.2196
O98        O    0.4459099187    0.9851264009   -0.0148735991         -1.1259
O99        O    0.4851264009    1.0148735991    0.0540900813         -1.1241
O100       O    0.5148735991    0.9459099187    0.0148735991         -1.1193
O101       O    0.4459099187    1.0148735991    0.0148735991         -1.1261
O102       O    0.4851264009    0.9459099187   -0.0148735991         -1.1221
O103       O    0.5148735991    0.9851264009    0.0540900813         -1.1279
O104       O    0.5540900813    1.0148735991   -0.0148735991         -1.1218
O105       O    0.4851264009    1.0540900813    0.0148735991         -1.1294
O106       O    0.5540900813    0.9851264009    0.0148735991         -1.1233
O107       O    0.5148735991    1.0540900813   -0.0148735991         -1.1279
O108       O    0.5148735991    1.0148735991   -0.0540900813          -1.127
O109       O    0.4851264009    0.9851264009   -0.0540900813         -1.1249
C110       C    0.4353287248    1.0000000000    0.0000000000           0.393
C111       C    0.5000000000    1.0000000000    0.0646712752          0.3979
C112       C    0.5000000000    0.9353287248    0.0000000000          0.3875
C113       C    0.5646712752    1.0000000000    0.0000000000          0.3912
C114       C    0.5000000000    1.0646712752    0.0000000000          0.4026
C115       C    0.5000000000    1.0000000000   -0.0646712752          0.3931
Zn116     Zn    0.4797617970    1.0202382030    0.5202382030          1.4972
Zn117     Zn    0.4797617970    0.9797617970    0.4797617970          1.4936
Zn118     Zn    0.5202382030    1.0202382030    0.4797617970          1.4911
Zn119     Zn    0.5202382030    0.9797617970    0.5202382030          1.4948
O120       O    0.5000000000    1.0000000000    0.5000000000         -2.2196
O121       O    0.4459099187    1.0148735991    0.5148735991         -1.1259
O122       O    0.4851264009    0.9851264009    0.4459099187         -1.1241
O123       O    0.5148735991    1.0540900813    0.4851264009         -1.1193
O124       O    0.4459099187    0.9851264009    0.4851264009         -1.1261
O125       O    0.4851264009    1.0540900813    0.5148735991         -1.1221
O126       O    0.5148735991    1.0148735991    0.4459099187         -1.1279
O127       O    0.5540900813    0.9851264009    0.5148735991         -1.1218
O128       O    0.4851264009    0.9459099187    0.4851264009         -1.1294
O129       O    0.5540900813    1.0148735991    0.4851264009         -1.1233
O130       O    0.5148735991    0.9459099187    0.5148735991         -1.1279
O131       O    0.5148735991    0.9851264009    0.5540900813          -1.127
O132       O    0.4851264009    1.0148735991    0.5540900813         -1.1249
C133       C    0.4353287248    1.0000000000    0.5000000000           0.393
C134       C    0.5000000000    1.0000000000    0.4353287248          0.3979
C135       C    0.5000000000    1.0646712752    0.5000000000          0.3875
C136       C    0.5646712752    1.0000000000    0.5000000000          0.3912
C137       C    0.5000000000    0.9353287248    0.5000000000          0.4026
C138       C    0.5000000000    1.0000000000    0.5646712752          0.3931
Zn139     Zn    0.4797617970    0.5202382030   -0.0202382030          1.4972
Zn140     Zn    0.4797617970    0.4797617970    0.0202382030          1.4936
Zn141     Zn    0.5202382030    0.4797617970   -0.0202382030          1.4911
Zn142     Zn    0.5202382030    0.5202382030    0.0202382030          1.4948
O143       O    0.5000000000    0.5000000000    0.0000000000         -2.2196
O144       O    0.4459099187    0.5148735991   -0.0148735991         -1.1259
O145       O    0.4851264009    0.4459099187    0.0148735991         -1.1241
O146       O    0.5148735991    0.4851264009   -0.0540900813         -1.1193
O147       O    0.4459099187    0.4851264009    0.0148735991         -1.1261
O148       O    0.4851264009    0.5148735991   -0.0540900813         -1.1221
O149       O    0.5148735991    0.4459099187   -0.0148735991         -1.1279
O150       O    0.5540900813    0.5148735991    0.0148735991         -1.1218
O151       O    0.4851264009    0.4851264009    0.0540900813         -1.1294
O152       O    0.5540900813    0.4851264009   -0.0148735991         -1.1233
O153       O    0.5148735991    0.5148735991    0.0540900813         -1.1279
O154       O    0.5148735991    0.5540900813    0.0148735991          -1.127
O155       O    0.4851264009    0.5540900813   -0.0148735991         -1.1249
C156       C    0.4353287248    0.5000000000    0.0000000000           0.393
C157       C    0.5000000000    0.4353287248    0.0000000000          0.3979
C158       C    0.5000000000    0.5000000000   -0.0646712752          0.3875
C159       C    0.5646712752    0.5000000000    0.0000000000          0.3912
C160       C    0.5000000000    0.5000000000    0.0646712752          0.4026
C161       C    0.5000000000    0.5646712752    0.0000000000          0.3931
Zn162     Zn    0.4797617970    0.5202382030    0.4797617970          1.4972
Zn163     Zn    0.5202382030    0.5202382030    0.5202382030          1.4936
Zn164     Zn    0.4797617970    0.4797617970    0.5202382030          1.4911
Zn165     Zn    0.5202382030    0.4797617970    0.4797617970          1.4948
O166       O    0.5000000000    0.5000000000    0.5000000000         -2.2196
O167       O    0.4851264009    0.5540900813    0.4851264009         -1.1259
O168       O    0.5148735991    0.5148735991    0.5540900813         -1.1241
O169       O    0.4459099187    0.4851264009    0.5148735991         -1.1193
O170       O    0.5148735991    0.5540900813    0.5148735991         -1.1261
O171       O    0.4459099187    0.5148735991    0.4851264009         -1.1221
O172       O    0.4851264009    0.4851264009    0.5540900813         -1.1279
O173       O    0.5148735991    0.4459099187    0.4851264009         -1.1218
O174       O    0.5540900813    0.5148735991    0.5148735991         -1.1294
O175       O    0.4851264009    0.4459099187    0.5148735991         -1.1233
O176       O    0.5540900813    0.4851264009    0.4851264009         -1.1279
O177       O    0.5148735991    0.4851264009    0.4459099187          -1.127
O178       O    0.4851264009    0.5148735991    0.4459099187         -1.1249
C179       C    0.5000000000    0.5646712752    0.5000000000           0.393
C180       C    0.5000000000    0.5000000000    0.5646712752          0.3979
C181       C    0.4353287248    0.5000000000    0.5000000000          0.3875
C182       C    0.5000000000    0.4353287248    0.5000000000          0.3912
C183       C    0.5646712752    0.5000000000    0.5000000000          0.4026
C184       C    0.5000000000    0.5000000000    0.4353287248          0.3931
C1243      C    0.5000000000    0.5000000000   -0.0924690210         -0.3807
C1244      C    0.4798610354    0.4994496363   -0.1074785371          -0.381
C1245      C    0.4787456877    0.4986898581   -0.1326340762         -0.3813
C1246      C    0.4973835334    0.4984342967   -0.1490455860         -0.3813
C1247      C    0.5176301203    0.4989469746   -0.1342154434          -0.381
C1248      C    0.5192868401    0.4998926838   -0.1085561979         -0.3806
C1249      C    0.4941531947    0.4939302774   -0.1808352637          0.6158
H1250      H    0.4605602964    0.4977778535   -0.1401809496          0.6181
H1251      H    0.4621023765    0.4993781580   -0.0990950980         -0.3812
C1252      C    0.5454472284    0.5005212261   -0.0994583837         -0.3801
H1253      H    0.5345579115    0.4983375494   -0.1438921134         -0.3813
C1254      C    0.5080029601    0.5021959460   -0.2070423466          -0.378
C1255      C    0.4934138298    0.4941634376   -0.2332633611          0.6164
N1256      N    0.4696379177    0.4990681314   -0.2203161443         -0.3802
N1257      N    0.4698001791    0.4974279833   -0.1926377661          0.6183
C1258      C    0.4949867067    0.5040288078   -0.2649637371         -0.3762
H1259      H    0.4576822915    0.4843977009   -0.1879011550          0.6089
H1260      H    0.4643511971    0.5164522356   -0.2232800524         -0.3678
H1261      H    0.5262228512    0.4947383317   -0.2071662737          0.6167
H1262      H    0.4952328341    0.4745410003   -0.2340665324          0.6024
H1263      H    0.5099028764    0.5218328169   -0.2067747128         -0.3639
H1264      H    0.4964772920    0.4743628779   -0.1814401247          0.6018
C1265      C    0.5505888097    0.4979362619   -0.0721751778          0.6178
H1266      H    0.5699842425    0.4969631494   -0.0689882243          0.6171
H1267      H    0.5425685370    0.4814566508   -0.0648585794          0.6059
H1268      H    0.5439192804    0.5136010730   -0.0621928217         -0.3711
H1269      H    0.5535745288    0.5175076356   -0.1053550457         -0.3679
H1270      H    0.5554235441    0.4861205119   -0.1084762789          0.6097
C1271      C    0.4979245969    0.4901616083   -0.2945079252          0.6142
N1272      N    0.4973924987    0.5025824884   -0.3233563358         -0.3767
N1273      N    0.4963457209    0.5142843873   -0.3069408256         -0.3684
N1274      N    0.4943536399    0.5142175843   -0.2824285825         -0.3687
C1275      C    0.4964645821    0.4923314960   -0.3535506287          0.6163
H1276      H    0.5152490206    0.4801773713   -0.2934443602          0.6071
H1277      H    0.4847261215    0.4752276604   -0.2947475343          0.6034
H1278      H    0.4819792295    0.5188650272   -0.2663897521         -0.3656
C1279      C    0.5137637546    0.4963629038   -0.3794253573         -0.3805
C1280      C    0.5000000000    0.5000000000   -0.4075309790         -0.3777
N1281      N    0.4765752422    0.4928352323   -0.3952544904           0.617
N1282      N    0.4755687749    0.5010760118   -0.3688472699         -0.3774
H1283      H    0.4589167634    0.4970796965   -0.3621423399         -0.3803
H1284      H    0.4754528138    0.4745323521   -0.3941482669          0.6038
H1285      H    0.5257805118    0.4807741672   -0.3806443620          0.6083
H1286      H    0.4989261929    0.5195196184   -0.4101740701         -0.3637
H1287      H    0.5255711499    0.5118615874   -0.3764696435         -0.3694
H1288      H    0.4939107378    0.4727255173   -0.3516717241          0.6022
C1197      C    0.5000000000    0.5000000000    0.0924690210         -0.3807
C1198      C    0.4838882238    0.5120951008    0.1074785371          -0.381
C1199      C    0.4834176553    0.5133599441    0.1326340762         -0.3813
C1200      C    0.4987708240    0.5027904212    0.1490455860         -0.3813
C1201      C    0.5149921954    0.4906638293    0.1342154434          -0.381
C1202      C    0.5157969119    0.4889342289    0.1085561979         -0.3806
C1203      C    0.4987400197    0.5083330135    0.1808352637          0.6158
H1204      H    0.4691088019    0.5246203581    0.1401809496          0.6181
H1205      H    0.4694414478    0.5224230116    0.0990950980         -0.3812
C1206      C    0.5367759584    0.4732932381    0.0994583837         -0.3801
H1207      H    0.5291548789    0.4813719022    0.1438921134         -0.3813
C1208      C    0.5052591974    0.4935804680    0.2070423466          -0.378
C1209      C    0.4980019874    0.5085703584    0.2332633611          0.6164
N1210      N    0.4757684799    0.5183182383    0.2203161443         -0.3802
N1211      N    0.4768493341    0.5195624927    0.1926377661          0.6183
C1212      C    0.4935801808    0.4996122841    0.2649637371         -0.3762
H1213      H    0.4744983931    0.5372006484    0.1879011550          0.6089
H1214      H    0.4614023992    0.5071929420    0.2232800524         -0.3678
H1215      H    0.5244362363    0.4891283196    0.2071662737          0.6167
H1216      H    0.5108333870    0.5235270964    0.2340665324          0.6024
H1217      H    0.4954534716    0.4764613523    0.2067747128         -0.3639
H1218      H    0.5119516633    0.5229527612    0.1814401247          0.6018
C1219      C    0.5424654837    0.4724288307    0.0721751778          0.6178
H1220      H    0.5588516678    0.4620066076    0.0689882243          0.6171
H1221      H    0.5454522157    0.4905114685    0.0648585794          0.6059
H1222      H    0.5279655055    0.4635058514    0.0621928217         -0.3711
H1223      H    0.5335834685    0.4547352445    0.1053550457         -0.3679
H1224      H    0.5532427137    0.4792726541    0.1084762789          0.6097
C1225      C    0.5039962275    0.5092266687    0.2945079252          0.6142
N1226      N    0.4963792941    0.4994010025    0.3233563358         -0.3767
N1227      N    0.4887582450    0.4904595377    0.3069408256         -0.3684
N1228      N    0.4871716696    0.4916660318    0.2824285825         -0.3687
C1229      C    0.5015502812    0.5083007085    0.3535506287          0.6163
H1230      H    0.5239038263    0.5073536609    0.2934443602          0.6071
H1231      H    0.5018645712    0.5290427882    0.2947475343          0.6034
H1232      H    0.4743886552    0.4950304488    0.2663897521         -0.3656
C1233      C    0.5133322180    0.4950078690    0.3794253573         -0.3805
C1234      C    0.5000000000    0.5000000000    0.4075309790         -0.3777
N1235      N    0.4850325851    0.5193914844    0.3952544904           0.617
N1236      N    0.4794459420    0.5132504061    0.3688472699         -0.3774
H1237      H    0.4681716873    0.5261403714    0.3621423399         -0.3803
H1238      H    0.4947011827    0.5349726747    0.3941482669          0.6038
H1239      H    0.5321506516    0.5007765533    0.3806443620          0.6083
H1240      H    0.4878360162    0.4846962076    0.4101740701         -0.3637
H1241      H    0.5140024053    0.4755354622    0.3764696435         -0.3694
H1242      H    0.5108046460    0.5257727792    0.3516717241          0.6022
C1151      C    0.5000000000    0.9075309790    0.5000000000         -0.3807
C1152      C    0.5003284980    0.8925214629    0.4798561949          -0.381
C1153      C    0.4996180874    0.8673659238    0.4787087716         -0.3813
C1154      C    0.4985499007    0.8509544140    0.4973177367         -0.3813
C1155      C    0.4981790589    0.8657845566    0.5175674181          -0.381
C1156      C    0.4990516123    0.8914438021    0.5192638075         -0.3806
C1157      C    0.4941910547    0.8191647363    0.4938940341          0.6158
H1158      H    0.4995000858    0.8598190504    0.4605009084          0.6181
H1159      H    0.5010316114    0.9009049020    0.4621113165         -0.3812
C1160      C    0.4985386010    0.9005416163    0.5454267164         -0.3801
H1161      H    0.4968319273    0.8561078866    0.5344525225         -0.3813
C1162      C    0.5018448165    0.7929576534    0.5080911186          -0.378
C1163      C    0.4944562397    0.7667366389    0.4931655418          0.6164
N1164      N    0.5003932258    0.7796838557    0.4696261660         -0.3802
N1165      N    0.4987475615    0.8073622339    0.4697167398          0.6183
C1166      C    0.5042436233    0.7350362629    0.4951671889         -0.3762
H1167      H    0.4862581858    0.8120988450    0.4570420818          0.6089
H1168      H    0.5179913627    0.7767199476    0.4651026638         -0.3678
H1169      H    0.4935996585    0.7928337263    0.5259684175          0.6167
H1170      H    0.4747731400    0.7659334676    0.4941270049          0.6024
H1171      H    0.5213801395    0.7932252872    0.5108456669         -0.3639
H1172      H    0.4745409114    0.8185598753    0.4953625100          0.6018
C1173      C    0.4957318523    0.9278248222    0.5504506650          0.6178
H1174      H    0.4939137559    0.9310117757    0.5697852011          0.6171
H1175      H    0.4796177171    0.9351414206    0.5417192844          0.6059
H1176      H    0.5116726416    0.9378071783    0.5444706849         -0.3711
H1177      H    0.5151543843    0.8946449543    0.5542871263         -0.3679
H1178      H    0.4837164840    0.8915237211    0.5547654684          0.6097
C1179      C    0.4902614863    0.7054920748    0.4974974814          0.6142
N1180      N    0.5026937543    0.6766436642    0.4975076121         -0.3767
N1181      N    0.5144301724    0.6930591744    0.4969721954         -0.3684
N1182      N    0.5144503153    0.7175714175    0.4949790964         -0.3687
C1183      C    0.4924929861    0.6464493713    0.4961334931          0.6163
H1184      H    0.4795311645    0.7065556398    0.5143699692          0.6071
H1185      H    0.4759173851    0.7052524657    0.4836602377          0.6034
H1186      H    0.5196330318    0.7336102479    0.4828191536         -0.3656
C1187      C    0.4957660742    0.6205746427    0.5135920301         -0.3805
C1188      C    0.5000000000    0.5924690210    0.5000000000         -0.3777
N1189      N    0.4938636940    0.6047455096    0.4762850485           0.617
N1190      N    0.5021405280    0.6311527301    0.4756389511         -0.3774
H1191      H    0.4988742740    0.6378576601    0.4588284899         -0.3803
H1192      H    0.4756271831    0.6058517331    0.4743654289          0.6038
H1193      H    0.4796680736    0.6193556380    0.5249174678          0.6083
H1194      H    0.5195478776    0.5898259299    0.4997785406         -0.3637
H1195      H    0.5107350441    0.6235303565    0.5260641477         -0.3694
H1196      H    0.4730170462    0.6483282759    0.4927269864          0.6022
C1105      C    0.5000000000    1.0924690210    0.5000000000         -0.3807
C1106      C    0.4948844836    1.1074785371    0.5194862077          -0.381
C1107      C    0.4938909819    1.1326340762    0.5203995627         -0.3813
C1108      C    0.4978803347    1.1490455860    0.5021918812         -0.3813
C1109      C    0.5029836256    1.1342154434    0.4825923011          -0.381
C1110      C    0.5042812946    1.1085561979    0.4811940373         -0.3806
C1111      C    0.4927597383    1.1808352637    0.5043133833          0.6158
H1112      H    0.4888675387    1.1401809496    0.5379011406          0.6181
H1113      H    0.4907765848    1.0990950980    0.5367633672         -0.3812
C1114      C    0.5108422044    1.0994583837    0.4558619342         -0.3801
H1115      H    0.5062395214    1.1438921134    0.4659694055         -0.3813
C1116      C    0.5039582776    1.2070423466    0.4927060582          -0.378
C1117      C    0.4928186597    1.2332633611    0.5050863985          0.6164
N1118      N    0.4921882514    1.2203161443    0.5293547442         -0.3802
N1119      N    0.4906279703    1.1926377661    0.5288237664          0.6183
C1120      C    0.5027832446    1.2649637371    0.5057980989         -0.3762
H1121      H    0.4751834682    1.1879011550    0.5376611197          0.6089
H1122      H    0.5079147305    1.2232800524    0.5384560821         -0.3678
H1123      H    0.5008392162    1.2071662737    0.4732676451          0.6167
H1124      H    0.4741239342    1.2340665324    0.4988529352          0.6024
H1125      H    0.5235127356    1.2067747128    0.4953213121         -0.3639
H1126      H    0.4742334662    1.1814401247    0.4976005751          0.6018
C1127      C    0.5094941498    1.0721751778    0.4502672361          0.6178
H1128      H    0.5129570242    1.0689882243    0.4311586448          0.6171
H1129      H    0.4916224768    1.0648585794    0.4543299524          0.6059
H1130      H    0.5232319294    1.0621928217    0.4603241909         -0.3711
H1131      H    0.5292317365    1.1053550457    0.4518102394         -0.3679
H1132      H    0.4990873630    1.1084762789    0.4428722789          0.6097
C1133      C    0.4899474130    1.2945079252    0.4997837953          0.6142
N1134      N    0.5019218898    1.3233563358    0.5031264435         -0.3767
N1135      N    0.5130791840    1.3069408256    0.5068067923         -0.3684
N1136      N    0.5125611348    1.2824285825    0.5087314935         -0.3687
C1137      C    0.4917284483    1.3535506287    0.5016989896          0.6163
H1138      H    0.4841642940    1.2934443602    0.4806428397          0.6071
H1139      H    0.4724033940    1.2947475343    0.5092405362          0.6034
H1140      H    0.5142729001    1.2663897521    0.5218385381         -0.3656
C1141      C    0.4995880470    1.3794253573    0.4857697609         -0.3805
C1142      C    0.5000000000    1.4075309790    0.5000000000         -0.3777
N1143      N    0.4876961807    1.3952544904    0.5211818131           0.617
N1144      N    0.4954921972    1.3688472699    0.5240358540         -0.3774
H1145      H    0.4878139352    1.3621423399    0.5393428561         -0.3803
H1146      H    0.4696175648    1.3941482669    0.5181127875          0.6038
H1147      H    0.4871403007    1.3806443620    0.4705229654          0.6083
H1148      H    0.5187640569    1.4101740701    0.5054844080         -0.3637
H1149      H    0.5173656772    1.3764696435    0.4777960764         -0.3694
H1150      H    0.4720553709    1.3516717241    0.4997275568          0.6022
C1059      C    0.5000000000    0.5924690210    0.0000000000         -0.3807
C1060      C    0.5101401597    0.6074785371   -0.0174085599          -0.381
C1061      C    0.5113417257    0.6326340762   -0.0180229720         -0.3813
C1062      C    0.5026286156    0.6490455860   -0.0015452199         -0.3813
C1063      C    0.4924699183    0.6342154434    0.0159758529          -0.381
C1064      C    0.4908455896    0.6085561979    0.0169761741         -0.3806
C1065      C    0.5081300502    0.6808352637   -0.0022201235          0.6158
H1066      H    0.5208624414    0.6401809496   -0.0335438026          0.6181
H1067      H    0.5187186610    0.5990950980   -0.0329579776         -0.3812
C1068      C    0.4777493838    0.5994583837    0.0396312040         -0.3801
H1069      H    0.4848873522    0.6438921134    0.0311226745         -0.3813
C1070      C    0.4942353544    0.7070423466    0.0059697914          -0.378
C1071      C    0.5082799922    0.7332633611   -0.0029807427          0.6164
N1072      N    0.5153772132    0.7203161443   -0.0261966741         -0.3802
N1073      N    0.5167386778    0.6926377661   -0.0252677881          0.6183
C1074      C    0.4988686298    0.7649637371   -0.0063312245         -0.3762
H1075      H    0.5339839641    0.6879011550   -0.0296531680          0.6089
H1076      H    0.5026573329    0.7232800524   -0.0391720792         -0.3678
H1077      H    0.4920426573    0.7071662737    0.0255343646          0.6167
H1078      H    0.5246269369    0.7340665324    0.0080249933          0.6024
H1079      H    0.4760924167    0.7067747128   -0.0017794145         -0.3639
H1080      H    0.5241864914    0.6814401247    0.0092024528          0.6018
C1081      C    0.4775522253    0.5721751778    0.0453826409          0.6178
H1082      H    0.4691055009    0.5689882243    0.0628692817          0.6171
H1083      H    0.4958594673    0.5648585794    0.0462470770          0.6059
H1084      H    0.4670041659    0.5621928217    0.0320182340         -0.3711
H1085      H    0.4589460901    0.6053550457    0.0386176634         -0.3679
H1086      H    0.4856024675    0.6084762789    0.0552912334          0.6097
C1087      C    0.5096286635    0.7945079252    0.0028965648          0.6142
N1088      N    0.4989841683    0.8233563358   -0.0035265274         -0.3767
N1089      N    0.4892174016    0.8069408256   -0.0100564928         -0.3684
N1090      N    0.4902312820    0.7824285825   -0.0117725628         -0.3687
C1091      C    0.5084246478    0.8535506287    0.0005748409          0.6163
H1092      H    0.5100825467    0.7934443602    0.0228869284          0.6071
H1093      H    0.5290626391    0.7947475343   -0.0015241982          0.6034
H1094      H    0.4920869062    0.7663897521   -0.0248600155         -0.3656
C1095      C    0.4965915401    0.8794253573    0.0138221493         -0.3805
C1096      C    0.5000000000    0.9075309790    0.0000000000         -0.3777
N1097      N    0.5175201048    0.8952544904   -0.0171201374           0.617
N1098      N    0.5107712319    0.8688472699   -0.0219550251         -0.3774
H1099      H    0.5222632131    0.8621423399   -0.0346512604         -0.3803
H1100      H    0.5341196029    0.8941482669   -0.0093283513          0.6038
H1101      H    0.5045086957    0.8806443620    0.0318424103          0.6083
H1102      H    0.4833859386    0.9101740701   -0.0103025011         -0.3637
H1103      H    0.4773290561    0.8764696435    0.0167513959         -0.3694
H1104      H    0.5268540537    0.8516717241    0.0077353940          0.6022
C1013      C    0.5000000000    1.4075309790    0.0000000000         -0.3807
C1014      C    0.4876471946    1.3925214629   -0.0159150556          -0.381
C1015      C    0.4863749427    1.3673659238   -0.0163652093         -0.3813
C1016      C    0.4971901602    1.3509544140   -0.0011841134         -0.3813
C1017      C    0.5095762162    1.3657845566    0.0148400164          -0.381
C1018      C    0.5113185422    1.3914438021    0.0156167961         -0.3806
C1019      C    0.4916477899    1.3191647363   -0.0011257223          0.6158
H1020      H    0.4748857286    1.3598190504   -0.0304910073          0.6181
H1021      H    0.4770881436    1.4009049020   -0.0301937642         -0.3812
C1022      C    0.5272951025    1.4005416163    0.0363414312         -0.3801
H1023      H    0.5190948461    1.3561078866    0.0288513404         -0.3813
C1024      C    0.5065033318    1.2929576534    0.0051552133          -0.378
C1025      C    0.4913985993    1.2667366389   -0.0018598397          0.6164
N1026      N    0.4812941999    1.2796838557   -0.0239336053         -0.3802
N1027      N    0.4800674998    1.3073622339   -0.0228328686          0.6183
C1028      C    0.5002843580    1.2350362629   -0.0064252270         -0.3762
H1029      H    0.4623937967    1.3120988450   -0.0248996719          0.6089
H1030      H    0.4921868767    1.2767199476   -0.0384768542         -0.3678
H1031      H    0.5112635007    1.2928337263    0.0242581251          0.6167
H1032      H    0.4766502809    1.2659334676    0.0112105823          0.6024
H1033      H    0.5234624371    1.2932252872   -0.0049247236         -0.3639
H1034      H    0.4772425370    1.3185598753    0.0123194717          0.6018
C1035      C    0.5282509539    1.4278248222    0.0420163098          0.6178
H1036      H    0.5389355139    1.4310117757    0.0582326577          0.6171
H1037      H    0.5102187200    1.4351414206    0.0452936409          0.6059
H1038      H    0.5369394441    1.4378071783    0.0273746205         -0.3711
H1039      H    0.5457993196    1.3946449543    0.0328507194         -0.3679
H1040      H    0.5215814439    1.3915237211    0.0529022751          0.6097
C1041      C    0.4908388333    1.2054920748    0.0041441856          0.6142
N1042      N    0.5005406556    1.1766436642   -0.0036298762         -0.3767
N1043      N    0.5093583246    1.1930591744   -0.0113938245         -0.3684
N1044      N    0.5081264555    1.2175714175   -0.0129607795         -0.3687
C1045      C    0.4917253135    1.1464493713    0.0016836554          0.6163
H1046      H    0.4930319517    1.2065556398    0.0240190662          0.6071
H1047      H    0.4709909771    1.2052524657    0.0023316863          0.6034
H1048      H    0.5045567699    1.2336102479   -0.0256879986         -0.3656
C1049      C    0.5052060267    1.1205746427    0.0132501583         -0.3805
C1050      C    0.5000000000    1.0924690210    0.0000000000         -0.3777
N1051      N    0.4803701708    1.1047455096   -0.0146534290           0.617
N1052      N    0.4864205536    1.1311527301   -0.0203381710         -0.3774
H1053      H    0.4733508321    1.1378576601   -0.0314035405         -0.3803
H1054      H    0.4649465852    1.1058517331   -0.0047353508          0.6038
H1055      H    0.4997409156    1.1193556380    0.0321589849          0.6083
H1056      H    0.5151060680    1.0898259299   -0.0124086774         -0.3637
H1057      H    0.5246866968    1.1235303565    0.0136069088         -0.3694
H1058      H    0.4744044264    1.1483282759    0.0112179826          0.6022
C967       C    0.5000000000    1.0000000000   -0.0924690210         -0.3807
C968       C    0.4994496363    1.0201389646   -0.1074785371          -0.381
C969       C    0.4986898581    1.0212543123   -0.1326340762         -0.3813
C970       C    0.4984342967    1.0026164666   -0.1490455860         -0.3813
C971       C    0.4989469746    0.9823698797   -0.1342154434          -0.381
C972       C    0.4998926838    0.9807131599   -0.1085561979         -0.3806
C973       C    0.4939302774    1.0058468053   -0.1808352637          0.6158
H974       H    0.4977778535    1.0394397036   -0.1401809496          0.6181
H975       H    0.4993781580    1.0378976235   -0.0990950980         -0.3812
C976       C    0.5005212261    0.9545527716   -0.0994583837         -0.3801
H977       H    0.4983375494    0.9654420885   -0.1438921134         -0.3813
C978       C    0.5021959460    0.9919970399   -0.2070423466          -0.378
C979       C    0.4941634376    1.0065861702   -0.2332633611          0.6164
N980       N    0.4990681314    1.0303620823   -0.2203161443         -0.3802
N981       N    0.4974279833    1.0301998209   -0.1926377661          0.6183
C982       C    0.5040288078    1.0050132933   -0.2649637371         -0.3762
H983       H    0.4843977009    1.0423177085   -0.1879011550          0.6089
H984       H    0.5164522356    1.0356488029   -0.2232800524         -0.3678
H985       H    0.4947383317    0.9737771488   -0.2071662737          0.6167
H986       H    0.4745410003    1.0047671659   -0.2340665324          0.6024
H987       H    0.5218328169    0.9900971236   -0.2067747128         -0.3639
H988       H    0.4743628779    1.0035227080   -0.1814401247          0.6018
C989       C    0.4979362619    0.9494111903   -0.0721751778          0.6178
H990       H    0.4969631494    0.9300157575   -0.0689882243          0.6171
H991       H    0.4814566508    0.9574314630   -0.0648585794          0.6059
H992       H    0.5136010730    0.9560807196   -0.0621928217         -0.3711
H993       H    0.5175076356    0.9464254712   -0.1053550457         -0.3679
H994       H    0.4861205119    0.9445764559   -0.1084762789          0.6097
C995       C    0.4901616083    1.0020754031   -0.2945079252          0.6142
N996       N    0.5025824884    1.0026075013   -0.3233563358         -0.3767
N997       N    0.5142843873    1.0036542791   -0.3069408256         -0.3684
N998       N    0.5142175843    1.0056463601   -0.2824285825         -0.3687
C999       C    0.4923314960    1.0035354179   -0.3535506287          0.6163
H1000      H    0.4801773713    0.9847509794   -0.2934443602          0.6071
H1001      H    0.4752276604    1.0152738785   -0.2947475343          0.6034
H1002      H    0.5188650272    1.0180207705   -0.2663897521         -0.3656
C1003      C    0.4963629038    0.9862362454   -0.3794253573         -0.3805
C1004      C    0.5000000000    1.0000000000   -0.4075309790         -0.3777
N1005      N    0.4928352323    1.0234247578   -0.3952544904           0.617
N1006      N    0.5010760118    1.0244312251   -0.3688472699         -0.3774
H1007      H    0.4970796965    1.0410832366   -0.3621423399         -0.3803
H1008      H    0.4745323521    1.0245471862   -0.3941482669          0.6038
H1009      H    0.4807741672    0.9742194882   -0.3806443620          0.6083
H1010      H    0.5195196184    1.0010738071   -0.4101740701         -0.3637
H1011      H    0.5118615874    0.9744288501   -0.3764696435         -0.3694
H1012      H    0.4727255173    1.0060892622   -0.3516717241          0.6022
C921       C    0.5000000000    1.0000000000    0.0924690210         -0.3807
C922       C    0.5201366296    0.9993699637    0.1074785371          -0.381
C923       C    0.5212489625    0.9986057788    0.1326340762         -0.3813
C924       C    0.5026102516    0.9984239573    0.1490455860         -0.3813
C925       C    0.4823658515    0.9990167338    0.1342154434          -0.381
C926       C    0.4807128863    0.9999689902    0.1085561979         -0.3806
C927       C    0.5058227455    0.9939071929    0.1808352637          0.6158
H928       H    0.5394306033    0.9976218335    0.1401809496          0.6181
H929       H    0.5378948667    0.9992282265    0.0990950980         -0.3812
C930       C    0.4545551894    1.0007010273    0.0994583837         -0.3801
H931       H    0.4654357817    0.9984742857    0.1438921134         -0.3813
C932       C    0.4920057905    1.0022275914    0.2070423466          -0.378
C933       C    0.5065630272    0.9941374261    0.2332633611          0.6164
N934       N    0.5303581579    0.9989480156    0.2203161443         -0.3802
N935       N    0.5301894087    0.9973085222    0.1926377661          0.6183
C936       C    0.5050291934    1.0040089419    0.2649637371         -0.3762
H937       H    0.5422556491    0.9842303992    0.1879011550          0.6089
H938       H    0.5357136148    1.0163110676    0.2232800524         -0.3678
H939       H    0.4737565370    0.9948421197    0.2071662737          0.6167
H940       H    0.5046664038    0.9745223389    0.2340665324          0.6024
H941       H    0.4901835794    1.0218718253    0.2067747128         -0.3639
H942       H    0.5034212509    0.9743491414    0.1814401247          0.6018
C943       C    0.4494034213    0.9981364253    0.0721751778          0.6178
H944       H    0.4300042904    0.9972400555    0.0689882243          0.6171
H945       H    0.4573584321    0.9816252121    0.0648585794          0.6059
H946       H    0.4561348740    1.0137747267    0.0621928217         -0.3711
H947       H    0.4464951569    1.0177194583    0.1053550457         -0.3679
H948       H    0.4445219775    0.9863398957    0.1084762789          0.6097
C949       C    0.5020364627    0.9901534743    0.2945079252          0.6142
N950       N    0.5026176981    1.0025721520    0.3233563358         -0.3767
N951       N    0.5037107645    1.0142698178    0.3069408256         -0.3684
N952       N    0.5057025657    1.0141951340    0.2824285825         -0.3687
C953       C    0.5035050509    0.9923175687    0.3535506287          0.6163
H954       H    0.4846726734    0.9802378569    0.2934443602          0.6071
H955       H    0.5151757509    0.9751674255    0.2947475343          0.6034
H956       H    0.5180952662    1.0187935830    0.2663897521         -0.3656
C957       C    0.4862219635    0.9964173866    0.3794253573         -0.3805
C958       C    0.5000000000    1.0000000000    0.4075309790         -0.3777
N959       N    0.5233962281    0.9927426117    0.3952544904           0.617
N960       N    0.5244352910    1.0009793448    0.3688472699         -0.3774
H961       H    0.5410713614    0.9969171796    0.3621423399         -0.3803
H962       H    0.5244462350    0.9744354340    0.3941482669          0.6038
H963       H    0.4741436258    0.9808763145    0.3806443620          0.6083
H964       H    0.5011510252    1.0195152173    0.4101740701         -0.3637
H965       H    0.4744759788    1.0119626631    0.3764696435         -0.3694
H966       H    0.5059813071    0.9727016395    0.3516717241          0.6022
C875       C    0.9075309790    0.5000000000    0.5000000000         -0.3807
C876       C    0.8925214629    0.4798537956    0.4998939679          -0.381
C877       C    0.8673659238    0.4787219611    0.4991589754         -0.3813
C878       C    0.8509544140    0.4973496358    0.4984923880         -0.3813
C879       C    0.8657845566    0.5176026051    0.4985583696          -0.381
C880       C    0.8914438021    0.5192797810    0.4994673072         -0.3806
C881       C    0.8191647363    0.4940207395    0.4940607148          0.6158
H882       H    0.8598190504    0.4605208781    0.4986483012          0.6181
H883       H    0.9009049020    0.4620978803    0.5002142032         -0.3812
C884       C    0.9005416163    0.5454476686    0.4995186865         -0.3801
H885       H    0.8561078866    0.5345128363    0.4975757227         -0.3813
C886       C    0.7929576534    0.5080494483    0.5020188935          -0.378
C887       C    0.7667366389    0.4932866972    0.4943101263          0.6164
N888       N    0.7796838557    0.4696247502    0.4997380434         -0.3802
N889       N    0.8073622339    0.4697507960    0.4980947153          0.6183
C890       C    0.7350362629    0.4950767883    0.5041384040         -0.3762
H891       H    0.8120988450    0.4573484522    0.4853348828          0.6089
H892       H    0.7767199476    0.4647227505    0.5172345257         -0.3678
H893       H    0.7928337263    0.5261004171    0.4941612239          0.6167
H894       H    0.7659334676    0.4946724541    0.4746523415          0.6024
H895       H    0.7932252872    0.5103820257    0.5216090814         -0.3639
H896       H    0.8185598753    0.4959126804    0.4744468139          0.6018
C897       C    0.9278248222    0.5505309835    0.4968209452          0.6178
H898       H    0.9310117757    0.5699002343    0.4954202714          0.6171
H899       H    0.9351414206    0.5421491772    0.4805222434          0.6059
H900       H    0.9378071783    0.5442085897    0.5126290527         -0.3711
H901       H    0.8946449543    0.5539476549    0.5163217027         -0.3679
H902       H    0.8915237211    0.5551039260    0.4849014317          0.6097
C903       C    0.7054920748    0.4977081000    0.4902097782          0.6142
N904       N    0.6766436642    0.4974500940    0.5026393729         -0.3767
N905       N    0.6930591744    0.4966616754    0.5143615133         -0.3684
N906       N    0.7175714175    0.4946686056    0.5143386652         -0.3687
C907       C    0.6464493713    0.4962963008    0.4924113410          0.6163
H908       H    0.7065556398    0.5148080904    0.4798458516          0.6071
H909       H    0.7052524657    0.4841834428    0.4755705773          0.6034
H910       H    0.7336102479    0.4823997125    0.5192579153         -0.3656
C911       C    0.6205746427    0.5136801841    0.4960602066         -0.3805
C912       C    0.5924690210    0.5000000000    0.5000000000         -0.3777
N913       N    0.6047455096    0.4764229103    0.4933536466           0.617
N914       N    0.6311527301    0.4755984516    0.5016146206         -0.3774
H915       H    0.6378576601    0.4588623459    0.4979865648         -0.3803
H916       H    0.6058517331    0.4748970551    0.4750799760          0.6038
H917       H    0.6193556380    0.5253501828    0.4802102132          0.6083
H918       H    0.5898259299    0.4993569912    0.5195385543         -0.3637
H919       H    0.6235303565    0.5258265557    0.5112946883         -0.3694
H920       H    0.6483282759    0.4933106359    0.4728664612          0.6022
C829       C    1.0924690210    0.5000000000    0.5000000000         -0.3807
C830       C    1.1074785371    0.5201265782    0.4991046539          -0.381
C831       C    1.1326340762    0.5212287440    0.4983258768         -0.3813
C832       C    1.1490455860    0.5025892556    0.4983896957         -0.3813
C833       C    1.1342154434    0.4823544251    0.4992492055          -0.381
C834       C    1.1085561979    0.4807141525    0.5002231624         -0.3806
C835       C    1.1808352637    0.5057419477    0.4938309886          0.6158
H836       H    1.1401809496    0.5393958394    0.4971024156          0.6181
H837       H    1.0990950980    0.5378814055    0.4987289073         -0.3812
C838       C    1.0994583837    0.4545683740    0.5012998473         -0.3801
H839       H    1.1438921134    0.4654186769    0.4989299124         -0.3813
C840       C    1.2070423466    0.4920358403    0.5023327473          -0.378
C841       C    1.2332633611    0.5064851991    0.4940514463          0.6164
N842       N    1.2203161443    0.5303416584    0.4985480410         -0.3802
N843       N    1.1926377661    0.5301513183    0.4969109138          0.6183
C844       C    1.2649637371    0.5050815874    0.5039423180         -0.3762
H845       H    1.1879011550    0.5420441648    0.4836749152          0.6089
H846       H    1.2232800524    0.5359254641    0.5158390100         -0.3678
H847       H    1.2071662737    0.4736908443    0.4951884093          0.6167
H848       H    1.2340665324    0.5043302488    0.4744630565          0.6024
H849       H    1.2067747128    0.4904726632    0.5219992888         -0.3639
H850       H    1.1814401247    0.5030829217    0.4743062829          0.6018
C851       C    1.0721751778    0.4493832564    0.4988033590          0.6178
H852       H    1.0689882243    0.4299739974    0.4981627127          0.6171
H853       H    1.0648585794    0.4571199883    0.4821887468          0.6059
H854       H    1.0621928217    0.4563202092    0.5143515940         -0.3711
H855       H    1.1053550457    0.4467333136    0.5184230172         -0.3679
H856       H    1.1084762789    0.4443467794    0.4870721824          0.6097
C857       C    1.2945079252    0.5019065264    0.4901274924          0.6142
N858       N    1.3233563358    0.5026513672    0.5025374321         -0.3767
N859       N    1.3069408256    0.5038984928    0.5142196775         -0.3684
N860       N    1.2824285825    0.5058891368    0.5141187518         -0.3687
C861       C    1.3535506287    0.5034035059    0.4922720455          0.6163
H862       H    1.2934443602    0.4844135749    0.4804415596          0.6071
H863       H    1.2947475343    0.5148471844    0.4749695927          0.6034
H864       H    1.2663897521    0.5183413605    0.5185534880         -0.3656
C865       C    1.3794253573    0.4861759475    0.4965992674         -0.3805
C866       C    1.4075309790    0.5000000000    0.5000000000         -0.3777
N867       N    1.3952544904    0.5232985572    0.4924349217           0.617
N868       N    1.3688472699    0.5244460751    0.5006572466         -0.3774
H869       H    1.3621423399    0.5410271689    0.4963762007         -0.3803
H870       H    1.3941482669    0.5241072172    0.4741154966          0.6038
H871       H    1.3806443620    0.4738938553    0.4812187157          0.6083
H872       H    1.4101740701    0.5014081007    0.5194983542         -0.3637
H873       H    1.3764696435    0.4746358416    0.5122979850         -0.3694
H874       H    1.3516717241    0.5056210444    0.4726251871          0.6022
C783       C    0.5924690210    0.5000000000    0.0000000000         -0.3807
C784       C    0.6074785371    0.5199764717    0.0026117763          -0.381
C785       C    0.6326340762    0.5211970853    0.0020361327         -0.3813
C786       C    0.6490455860    0.5028294644   -0.0011364223         -0.3813
C787       C    0.6342154434    0.4827526042   -0.0038022811          -0.381
C788       C    0.6085561979    0.4809681732   -0.0031278241         -0.3806
C789       C    0.6808352637    0.5067255903   -0.0050786908          0.6158
H790       H    0.6401809496    0.5393007723    0.0039846516          0.6181
H791       H    0.5990950980    0.5375270042    0.0053235810         -0.3812
C792       C    0.5994583837    0.4550323955   -0.0066058150         -0.3801
H793       H    0.6438921134    0.4661293608   -0.0070564007         -0.3813
C794       C    0.7070423466    0.4917518217    0.0009149335          -0.378
C795       C    0.7332633611    0.5074192926   -0.0047325675          0.6164
N796       N    0.7203161443    0.5301331040    0.0038367260         -0.3802
N797       N    0.6926377661    0.5302298225    0.0021914113          0.6183
C798       C    0.7649637371    0.5043201498    0.0047645259         -0.3762
H799       H    0.6879011550    0.5442396152   -0.0087793300          0.6089
H800       H    0.7232800524    0.5326308163    0.0218344460         -0.3678
H801       H    0.7071662737    0.4749254003   -0.0093052420          0.6167
H802       H    0.7340665324    0.5086971678   -0.0243976599          0.6024
H803       H    0.7067747128    0.4867986944    0.0200116063         -0.3639
H804       H    0.6814401247    0.5074959874   -0.0247685623          0.6018
C805       C    0.5721751778    0.4503593228   -0.0099644293          0.6178
H806       H    0.5689882243    0.4313558961   -0.0139643710          0.6171
H807       H    0.5648585794    0.4608625433   -0.0249839073          0.6059
H808       H    0.5621928217    0.4544921420    0.0065518879         -0.3711
H809       H    0.6053550457    0.4443440648    0.0088974332         -0.3679
H810       H    0.6084762789    0.4474355731   -0.0223917497          0.6097
C811       C    0.7945079252    0.5035912357   -0.0093917131          0.6142
N812       N    0.8233563358    0.5021706773    0.0029591332         -0.3767
N813       N    0.8069408256    0.5013710910    0.0146805172         -0.3684
N814       N    0.7824285825    0.5033490358    0.0149266555         -0.3687
C815       C    0.8535506287    0.5046932440   -0.0070198713          0.6163
H816       H    0.7934443602    0.4880450899   -0.0219670062          0.6071
H817       H    0.7947475343    0.5189665341   -0.0220733042          0.6034
H818       H    0.7663897521    0.5148424636    0.0214555050         -0.3656
C819       C    0.8794253573    0.4869760873   -0.0057486613         -0.3805
C820       C    0.9075309790    0.5000000000    0.0000000000         -0.3777
N821       N    0.8952544904    0.5242580191   -0.0034061243           0.617
N822       N    0.8688472699    0.5239609032    0.0048905705         -0.3774
H823       H    0.8621423399    0.5410333934    0.0035526234         -0.3803
H824       H    0.8941482669    0.5282342530   -0.0213070973          0.6038
H825       H    0.8806443620    0.4775501611   -0.0230276392          0.6083
H826       H    0.9101740701    0.4980022406    0.0194467869         -0.3637
H827       H    0.8764696435    0.4728862067    0.0077086432         -0.3694
H828       H    0.8516717241    0.5102873830   -0.0259835770          0.6022
C737       C    1.0924690210    0.5000000000    0.0000000000         -0.3807
C738       C    1.1074785371    0.5199579299   -0.0027498785          -0.381
C739       C    1.1326340762    0.5209834802   -0.0036270956         -0.3813
C740       C    1.1490455860    0.5024295096   -0.0018425003         -0.3813
C741       C    1.1342154434    0.4823604811    0.0008816903          -0.381
C742       C    1.1085561979    0.4808171443    0.0020029386         -0.3806
C743       C    1.1808352637    0.5051478125   -0.0066728323          0.6158
H744       H    1.1401809496    0.5389600017   -0.0065227616          0.6181
H745       H    1.0990950980    0.5376022170   -0.0047633851         -0.3812
C746       C    1.0994583837    0.4548824710    0.0054891551         -0.3801
H747       H    1.1438921134    0.4654675986    0.0021274979         -0.3813
C748       C    1.2070423466    0.4922852528    0.0030581407          -0.378
C749       C    1.2332633611    0.5059082445   -0.0065219434          0.6164
N750       N    1.2203161443    0.5300779786   -0.0042473076         -0.3802
N751       N    1.1926377661    0.5297372900   -0.0058598664          0.6183
C752       C    1.2649637371    0.5054238875    0.0034562763         -0.3762
H753       H    1.1879011550    0.5403572060   -0.0201374307          0.6089
H754       H    1.2232800524    0.5372344665    0.0124542245         -0.3678
H755       H    1.2071662737    0.4733589624   -0.0023618202          0.6167
H756       H    1.2340665324    0.5019538355   -0.0258276802          0.6024
H757       H    1.2067747128    0.4925446337    0.0227850032         -0.3639
H758       H    1.1814401247    0.5006973613   -0.0258686140          0.6018
C759       C    1.0721751778    0.4494889940    0.0034820914          0.6178
H760       H    1.0689882243    0.4301034956    0.0046363064          0.6171
H761       H    1.0648585794    0.4556585906   -0.0137759049          0.6059
H762       H    1.0621928217    0.4578319359    0.0183233935         -0.3711
H763       H    1.1053550457    0.4486619229    0.0232626156         -0.3679
H764       H    1.1084762789    0.4433908517   -0.0077339358          0.6097
C765       C    1.2945079252    0.5009868189   -0.0100063698          0.6142
N766       N    1.3233563358    0.5028743308    0.0022817826         -0.3767
N767       N    1.3069408256    0.5051947914    0.0137989716         -0.3684
N768       N    1.2824285825    0.5071676129    0.0135146739         -0.3687
C769       C    1.3535506287    0.5026754176   -0.0080091993          0.6163
H770       H    1.2934443602    0.4826742589   -0.0180357405          0.6071
H771       H    1.2947475343    0.5124726145   -0.0262943732          0.6034
H772       H    1.2663897521    0.5199761170    0.0167807083         -0.3656
C773       C    1.3794253573    0.4859210004   -0.0021097821         -0.3805
C774       C    1.4075309790    0.5000000000    0.0000000000         -0.3777
N775       N    1.3952544904    0.5225005189   -0.0096839983           0.617
N776       N    1.3688472699    0.5244023308   -0.0016027525         -0.3774
H777       H    1.3621423399    0.5405173085   -0.0073965006         -0.3803
H778       H    1.3941482669    0.5216142280   -0.0279998319          0.6038
H779       H    1.3806443620    0.4722712356   -0.0162905819          0.6083
H780       H    1.4101740701    0.5032024365    0.0192850451         -0.3637
H781       H    1.3764696435    0.4758797096    0.0145874109         -0.3694
H782       H    1.3516717241    0.5030694201   -0.0277768822          0.6022
C691       C    1.0000000000    0.5000000000   -0.4075309790         -0.3807
C692       C    1.0161117762    0.4879048992   -0.3925214629          -0.381
C693       C    1.0165823447    0.4866400559   -0.3673659238         -0.3813
C694       C    1.0012291760    0.4972095788   -0.3509544140         -0.3813
C695       C    0.9850078046    0.5093361707   -0.3657845566          -0.381
C696       C    0.9842030881    0.5110657711   -0.3914438021         -0.3806
C697       C    1.0012599803    0.4916669865   -0.3191647363          0.6158
H698       H    1.0308911981    0.4753796419   -0.3598190504          0.6181
H699       H    1.0305585522    0.4775769884   -0.4009049020         -0.3812
C700       C    0.9632240416    0.5267067619   -0.4005416163         -0.3801
H701       H    0.9708451211    0.5186280978   -0.3561078866         -0.3813
C702       C    0.9947408026    0.5064195320   -0.2929576534          -0.378
C703       C    1.0019980126    0.4914296416   -0.2667366389          0.6164
N704       N    1.0242315201    0.4816817617   -0.2796838557         -0.3802
N705       N    1.0231506659    0.4804375073   -0.3073622339          0.6183
C706       C    1.0064198192    0.5003877159   -0.2350362629         -0.3762
H707       H    1.0255016069    0.4627993516   -0.3120988450          0.6089
H708       H    1.0385976008    0.4928070580   -0.2767199476         -0.3678
H709       H    0.9755637637    0.5108716804   -0.2928337263          0.6167
H710       H    0.9891666130    0.4764729036   -0.2659334676          0.6024
H711       H    1.0045465284    0.5235386477   -0.2932252872         -0.3639
H712       H    0.9880483367    0.4770472388   -0.3185598753          0.6018
C713       C    0.9575345163    0.5275711693   -0.4278248222          0.6178
H714       H    0.9411483322    0.5379933924   -0.4310117757          0.6171
H715       H    0.9545477843    0.5094885315   -0.4351414206          0.6059
H716       H    0.9720344945    0.5364941486   -0.4378071783         -0.3711
H717       H    0.9664165315    0.5452647555   -0.3946449543         -0.3679
H718       H    0.9467572863    0.5207273459   -0.3915237211          0.6097
C719       C    0.9960037725    0.4907733313   -0.2054920748          0.6142
N720       N    1.0036207059    0.5005989975   -0.1766436642         -0.3767
N721       N    1.0112417550    0.5095404623   -0.1930591744         -0.3684
N722       N    1.0128283304    0.5083339682   -0.2175714175         -0.3687
C723       C    0.9984497188    0.4916992915   -0.1464493713          0.6163
H724       H    0.9760961737    0.4926463391   -0.2065556398          0.6071
H725       H    0.9981354288    0.4709572118   -0.2052524657          0.6034
H726       H    1.0256113448    0.5049695512   -0.2336102479         -0.3656
C727       C    0.9866677820    0.5049921310   -0.1205746427         -0.3805
C728       C    1.0000000000    0.5000000000   -0.0924690210         -0.3777
N729       N    1.0149674149    0.4806085156   -0.1047455096           0.617
N730       N    1.0205540580    0.4867495939   -0.1311527301         -0.3774
H731       H    1.0318283127    0.4738596286   -0.1378576601         -0.3803
H732       H    1.0052988173    0.4650273253   -0.1058517331          0.6038
H733       H    0.9678493484    0.4992234467   -0.1193556380          0.6083
H734       H    1.0121639838    0.5153037924   -0.0898259299         -0.3637
H735       H    0.9859975947    0.5244645378   -0.1235303565         -0.3694
H736       H    0.9891953540    0.4742272208   -0.1483282759          0.6022
C645       C    1.0000000000    0.5000000000    0.4075309790         -0.3807
C646       C    0.9838882238    0.4879048992    0.3925214629          -0.381
C647       C    0.9834176553    0.4866400559    0.3673659238         -0.3813
C648       C    0.9987708240    0.4972095788    0.3509544140         -0.3813
C649       C    1.0149921954    0.5093361707    0.3657845566          -0.381
C650       C    1.0157969119    0.5110657711    0.3914438021         -0.3806
C651       C    0.9987400197    0.4916669865    0.3191647363          0.6158
H652       H    0.9691088019    0.4753796419    0.3598190504          0.6181
H653       H    0.9694414478    0.4775769884    0.4009049020         -0.3812
C654       C    1.0367759584    0.5267067619    0.4005416163         -0.3801
H655       H    1.0291548789    0.5186280978    0.3561078866         -0.3813
C656       C    1.0052591974    0.5064195320    0.2929576534          -0.378
C657       C    0.9980019874    0.4914296416    0.2667366389          0.6164
N658       N    0.9757684799    0.4816817617    0.2796838557         -0.3802
N659       N    0.9768493341    0.4804375073    0.3073622339          0.6183
C660       C    0.9935801808    0.5003877159    0.2350362629         -0.3762
H661       H    0.9744983931    0.4627993516    0.3120988450          0.6089
H662       H    0.9614023992    0.4928070580    0.2767199476         -0.3678
H663       H    1.0244362363    0.5108716804    0.2928337263          0.6167
H664       H    1.0108333870    0.4764729036    0.2659334676          0.6024
H665       H    0.9954534716    0.5235386477    0.2932252872         -0.3639
H666       H    1.0119516633    0.4770472388    0.3185598753          0.6018
C667       C    1.0424654837    0.5275711693    0.4278248222          0.6178
H668       H    1.0588516678    0.5379933924    0.4310117757          0.6171
H669       H    1.0454522157    0.5094885315    0.4351414206          0.6059
H670       H    1.0279655055    0.5364941486    0.4378071783         -0.3711
H671       H    1.0335834685    0.5452647555    0.3946449543         -0.3679
H672       H    1.0532427137    0.5207273459    0.3915237211          0.6097
C673       C    1.0039962275    0.4907733313    0.2054920748          0.6142
N674       N    0.9963792941    0.5005989975    0.1766436642         -0.3767
N675       N    0.9887582450    0.5095404623    0.1930591744         -0.3684
N676       N    0.9871716696    0.5083339682    0.2175714175         -0.3687
C677       C    1.0015502812    0.4916992915    0.1464493713          0.6163
H678       H    1.0239038263    0.4926463391    0.2065556398          0.6071
H679       H    1.0018645712    0.4709572118    0.2052524657          0.6034
H680       H    0.9743886552    0.5049695512    0.2336102479         -0.3656
C681       C    1.0133322180    0.5049921310    0.1205746427         -0.3805
C682       C    1.0000000000    0.5000000000    0.0924690210         -0.3777
N683       N    0.9850325851    0.4806085156    0.1047455096           0.617
N684       N    0.9794459420    0.4867495939    0.1311527301         -0.3774
H685       H    0.9681716873    0.4738596286    0.1378576601         -0.3803
H686       H    0.9947011827    0.4650273253    0.1058517331          0.6038
H687       H    1.0321506516    0.4992234467    0.1193556380          0.6083
H688       H    0.9878360162    0.5153037924    0.0898259299         -0.3637
H689       H    1.0140024053    0.5244645378    0.1235303565         -0.3694
H690       H    1.0108046460    0.4742272208    0.1483282759          0.6022
C599       C    1.0000000000   -0.4075309790    0.5000000000         -0.3807
C600       C    1.0187965417   -0.3925214629    0.4927494265          -0.381
C601       C    1.0201185016   -0.3673659238    0.4930208771         -0.3813
C602       C    1.0030176927   -0.3509544140    0.5004368693         -0.3813
C603       C    0.9841363540   -0.3657845566    0.5077636809          -0.381
C604       C    0.9822431792   -0.3914438021    0.5075292120         -0.3806
C605       C    1.0077338498   -0.3191647363    0.5033487657          0.6158
H606       H    1.0372515794   -0.3598190504    0.4868566373          0.6181
H607       H    1.0352120156   -0.4009049020    0.4859739344         -0.3812
C608       C    0.9578598661   -0.4005416163    0.5170273709         -0.3801
H609       H    0.9687499318   -0.3561078866    0.5148474317         -0.3813
C610       C    0.9917687777   -0.2929576534    0.5010566593          -0.378
C611       C    1.0083263220   -0.2667366389    0.5028487647          0.6164
N612       N    1.0283775500   -0.2796838557    0.4891630688         -0.3802
N613       N    1.0288596735   -0.3073622339    0.4907391308          0.6183
C614       C    1.0030742544   -0.2350362629    0.4943508087         -0.3762
H615       H    1.0450620934   -0.3120988450    0.4980952879          0.6089
H616       H    1.0265590516   -0.2767199476    0.4710840877         -0.3678
H617       H    0.9778282256   -0.2928337263    0.5149577907          0.6167
H618       H    1.0142071862   -0.2659334676    0.5216573867          0.6024
H619       H    0.9824504814   -0.2932252872    0.4836674174         -0.3639
H620       H    1.0131274041   -0.3185598753    0.5223011830          0.6018
C621       C    0.9541109907   -0.4278248222    0.5213935857          0.6178
H622       H    0.9365875037   -0.4310117757    0.5297636015          0.6171
H623       H    0.9678609150   -0.4351414206    0.5335114213          0.6059
H624       H    0.9542309183   -0.4378071783    0.5043684706         -0.3711
H625       H    0.9438159331   -0.3946449543    0.5044830867         -0.3679
H626       H    0.9542014018   -0.3915237211    0.5341598863          0.6097
C627       C    1.0057054125   -0.2054920748    0.5082794636          0.6142
N628       N    1.0014113449   -0.1766436642    0.4966123142         -0.3767
N629       N    0.9978692156   -0.1930591744    0.4854103724         -0.3684
N630       N    0.9997332712   -0.2175714175    0.4847045778         -0.3687
C631       C    1.0062167937   -0.1464493713    0.5057145962          0.6163
H632       H    0.9935645816   -0.2065556398    0.5241672222          0.6071
H633       H    1.0236383934   -0.2052524657    0.5169760575          0.6034
H634       H    1.0093621400   -0.2336102479    0.4756486601         -0.3656
C635       C    0.9886997930   -0.1205746427    0.5086587951         -0.3805
C636       C    1.0000000000   -0.0924690210    0.5000000000         -0.3777
N637       N    1.0243768904   -0.1047455096    0.4975874516           0.617
N638       N    1.0221309446   -0.1311527301    0.4895950082         -0.3774
H639       H    1.0390372168   -0.1378576601    0.4868677416         -0.3803
H640       H    1.0324637953   -0.1058517331    0.5140451925          0.6038
H641       H    0.9836160619   -0.1193556380    0.5276737060          0.6083
H642       H    0.9934710680   -0.0898259299    0.4815733451         -0.3637
H643       H    0.9718329579   -0.1235303565    0.4989051471         -0.3694
H644       H    1.0161266427   -0.1483282759    0.5228234072          0.6022
C553       C    1.0000000000    0.4075309790    0.5000000000         -0.3807
C554       C    0.9812034583    0.3925214629    0.4927494265          -0.381
C555       C    0.9798814984    0.3673659238    0.4930208771         -0.3813
C556       C    0.9969823073    0.3509544140    0.5004368693         -0.3813
C557       C    1.0158636460    0.3657845566    0.5077636809          -0.381
C558       C    1.0177568208    0.3914438021    0.5075292120         -0.3806
C559       C    0.9922661502    0.3191647363    0.5033487657          0.6158
H560       H    0.9627484206    0.3598190504    0.4868566373          0.6181
H561       H    0.9647879844    0.4009049020    0.4859739344         -0.3812
C562       C    1.0421401339    0.4005416163    0.5170273709         -0.3801
H563       H    1.0312500682    0.3561078866    0.5148474317         -0.3813
C564       C    1.0082312223    0.2929576534    0.5010566593          -0.378
C565       C    0.9916736780    0.2667366389    0.5028487647          0.6164
N566       N    0.9716224500    0.2796838557    0.4891630688         -0.3802
N567       N    0.9711403265    0.3073622339    0.4907391308          0.6183
C568       C    0.9969257456    0.2350362629    0.4943508087         -0.3762
H569       H    0.9549379066    0.3120988450    0.4980952879          0.6089
H570       H    0.9734409484    0.2767199476    0.4710840877         -0.3678
H571       H    1.0221717744    0.2928337263    0.5149577907          0.6167
H572       H    0.9857928138    0.2659334676    0.5216573867          0.6024
H573       H    1.0175495186    0.2932252872    0.4836674174         -0.3639
H574       H    0.9868725959    0.3185598753    0.5223011830          0.6018
C575       C    1.0458890093    0.4278248222    0.5213935857          0.6178
H576       H    1.0634124963    0.4310117757    0.5297636015          0.6171
H577       H    1.0321390850    0.4351414206    0.5335114213          0.6059
H578       H    1.0457690817    0.4378071783    0.5043684706         -0.3711
H579       H    1.0561840669    0.3946449543    0.5044830867         -0.3679
H580       H    1.0457985982    0.3915237211    0.5341598863          0.6097
C581       C    0.9942945875    0.2054920748    0.5082794636          0.6142
N582       N    0.9985886551    0.1766436642    0.4966123142         -0.3767
N583       N    1.0021307844    0.1930591744    0.4854103724         -0.3684
N584       N    1.0002667288    0.2175714175    0.4847045778         -0.3687
C585       C    0.9937832063    0.1464493713    0.5057145962          0.6163
H586       H    1.0064354184    0.2065556398    0.5241672222          0.6071
H587       H    0.9763616066    0.2052524657    0.5169760575          0.6034
H588       H    0.9906378600    0.2336102479    0.4756486601         -0.3656
C589       C    1.0113002070    0.1205746427    0.5086587951         -0.3805
C590       C    1.0000000000    0.0924690210    0.5000000000         -0.3777
N591       N    0.9756231096    0.1047455096    0.4975874516           0.617
N592       N    0.9778690554    0.1311527301    0.4895950082         -0.3774
H593       H    0.9609627832    0.1378576601    0.4868677416         -0.3803
H594       H    0.9675362047    0.1058517331    0.5140451925          0.6038
H595       H    1.0163839381    0.1193556380    0.5276737060          0.6083
H596       H    1.0065289320    0.0898259299    0.4815733451         -0.3637
H597       H    1.0281670421    0.1235303565    0.4989051471         -0.3694
H598       H    0.9838733573    0.1483282759    0.5228234072          0.6022
C507       C    0.5924690210   -0.0000000000    0.5000000000         -0.3807
C508       C    0.6074785371    0.0194958528    0.4949213662          -0.381
C509       C    0.6326340762    0.0204110862    0.4939295945         -0.3813
C510       C    0.6490455860    0.0021958882    0.4978844861         -0.3813
C511       C    0.6342154434   -0.0174133136    0.5029506800          -0.381
C512       C    0.6085561979   -0.0188140304    0.5042457008         -0.3806
C513       C    0.6808352637    0.0043270762    0.4927679134          0.6158
H514       H    0.6401809496    0.0379221385    0.4889392783          0.6181
H515       H    0.5990950980    0.0367807547    0.4908461680         -0.3812
C516       C    0.5994583837   -0.0441585033    0.5107586633         -0.3801
H517       H    0.6438921134   -0.0340423405    0.5061751147         -0.3813
C518       C    0.7070423466   -0.0073014189    0.5039444683          -0.378
C519       C    0.7332633611    0.0050999785    0.4928282975          0.6164
N520       N    0.7203161443    0.0293694736    0.4922438129         -0.3802
N521       N    0.6926377661    0.0288414493    0.4906825297          0.6183
C522       C    0.7649637371    0.0057928219    0.5027942113         -0.3762
H523       H    0.6879011550    0.0377080122    0.4752547781          0.6089
H524       H    0.7232800524    0.0384410363    0.5079874861         -0.3678
H525       H    0.7071662737   -0.0267338950    0.5007886295          0.6167
H526       H    0.7340665324   -0.0010980979    0.4741218100          0.6024
H527       H    0.7067747128   -0.0047231723    0.5235038401         -0.3639
H528       H    0.6814401247   -0.0023506630    0.4742289720          0.6018
C529       C    0.5721751778   -0.0497506404    0.5094000244          0.6178
H530       H    0.5689882243   -0.0688657503    0.5128267337          0.6171
H531       H    0.5648585794   -0.0456541132    0.4915360712          0.6059
H532       H    0.5621928217   -0.0397196995    0.5231568100         -0.3711
H533       H    0.6053550457   -0.0482449890    0.5291404955         -0.3679
H534       H    0.6084762789   -0.0571258919    0.4989792629          0.6097
C535       C    0.7945079252   -0.0001971819    0.4899470219          0.6142
N536       N    0.8233563358    0.0031228012    0.5019278025         -0.3767
N537       N    0.8069408256    0.0067820306    0.5130920409         -0.3684
N538       N    0.7824285825    0.0087077086    0.5125776348         -0.3687
C539       C    0.8535506287    0.0017146387    0.4917316781          0.6163
H540       H    0.7934443602   -0.0193271600    0.4841276931          0.6071
H541       H    0.7947475343    0.0092927402    0.4724209291          0.6034
H542       H    0.7663897521    0.0218114906    0.5143141992         -0.3656
C543       C    0.8794253573   -0.0142294341    0.4995611201         -0.3805
C544       C    0.9075309790   -0.0000000000    0.5000000000         -0.3777
N545       N    0.8952544904    0.0212050574    0.4877362847           0.617
N546       N    0.8688472699    0.0240443410    0.4955376879         -0.3774
H547       H    0.8621423399    0.0393658452    0.4878884048         -0.3803
H548       H    0.8941482669    0.0181702472    0.4696518937          0.6038
H549       H    0.8806443620   -0.0294526476    0.4870845448          0.6083
H550       H    0.9101740701    0.0054488913    0.5187744014         -0.3637
H551       H    0.8764696435   -0.0222367446    0.5173236300         -0.3694
H552       H    0.8516717241   -0.0002195636    0.4720549054          0.6022
C461       C    1.0924690210   -0.0000000000    0.5000000000         -0.3807
C462       C    1.1074785371    0.0180706884    0.4910932039          -0.381
C463       C    1.1326340762    0.0187670564    0.4899372044         -0.3813
C464       C    1.1490455860    0.0017240260    0.4974850331         -0.3813
C465       C    1.1342154434   -0.0164601909    0.5064025089          -0.381
C466       C    1.1085561979   -0.0175708940    0.5079534522         -0.3806
C467       C    1.1808352637    0.0027793310    0.4920437456          0.6158
H468       H    1.1401809496    0.0349115571    0.4815172693          0.6181
H469       H    1.0990950980    0.0341782779    0.4836151937         -0.3812
C470       C    1.0994583837   -0.0410806611    0.5194448331         -0.3801
H471       H    1.1438921134   -0.0320969965    0.5129149451         -0.3813
C472       C    1.2070423466   -0.0063556888    0.5053361755          -0.378
C473       C    1.2332633611    0.0035485263    0.4919469845          0.6164
N474       N    1.2203161443    0.0272012594    0.4864790568         -0.3802
N475       N    1.1926377661    0.0263691587    0.4850563752          0.6183
C476       C    1.2649637371    0.0062373762    0.5015682919         -0.3762
H477       H    1.1879011550    0.0319414993    0.4681572486          0.6089
H478       H    1.2232800524    0.0392620479    0.5000692693         -0.3678
H479       H    1.2071662737   -0.0260252982    0.5061649763          0.6167
H480       H    1.2340665324   -0.0062954773    0.4748752412          0.6024
H481       H    1.2067747128    0.0001149287    0.5239734363         -0.3639
H482       H    1.1814401247   -0.0075006797    0.4752328583          0.6018
C483       C    1.0721751778   -0.0468319050    0.5192421244          0.6178
H484       H    1.0689882243   -0.0648628904    0.5264541512          0.6171
H485       H    1.0648585794   -0.0464229630    0.5009190482          0.6059
H486       H    1.0621928217   -0.0342322382    0.5306927718         -0.3711
H487       H    1.1053550457   -0.0413753054    0.5382731178         -0.3679
H488       H    1.1084762789   -0.0561575532    0.5105232432          0.6097
C489       C    1.2945079252   -0.0022209388    0.4901934369          0.6142
N490       N    1.3233563358    0.0034474730    0.5012582685         -0.3767
N491       N    1.3069408256    0.0092834512    0.5114549120         -0.3684
N492       N    1.2824285825    0.0110657844    0.5105626465         -0.3687
C493       C    1.3535506287    0.0000115711    0.4915557712          0.6163
H494       H    1.2934443602   -0.0221315270    0.4883524787          0.6071
H495       H    1.2947475343    0.0035386864    0.4711133617          0.6034
H496       H    1.2663897521    0.0242505021    0.5096203206         -0.3656
C497       C    1.3794253573   -0.0140254727    0.5024403942         -0.3805
C498       C    1.4075309790   -0.0000000000    0.5000000000         -0.3777
N499       N    1.3952544904    0.0182954402    0.4837110454           0.617
N500       N    1.3688472699    0.0226500013    0.4907793707         -0.3774
H501       H    1.3621423399    0.0361136139    0.4801967832         -0.3803
H502       H    1.3941482669    0.0116751658    0.4666105415          0.6038
H503       H    1.3806443620   -0.0314524496    0.4932909878          0.6083
H504       H    1.4101740701    0.0091239172    0.5172893811         -0.3637
H505       H    1.3764696435   -0.0182852735    0.5214529657         -0.3694
H506       H    1.3516717241   -0.0058519216    0.4726736110          0.5998
C415       C   -0.0000000000   -0.0924690210    0.0000000000         -0.3807
C416       C   -0.0183213697   -0.1074785371   -0.0083790338          -0.381
C417       C   -0.0196573782   -0.1326340762   -0.0081883909         -0.3813
C418       C   -0.0030386584   -0.1490455860    0.0002527439         -0.3813
C419       C    0.0153627204   -0.1342154434    0.0087130262          -0.381
C420       C    0.0172666423   -0.1085561979    0.0085939968         -0.3806
C421       C   -0.0079229971   -0.1808352637    0.0028727655          0.6158
H422       H   -0.0363843488   -0.1401809496   -0.0153820454          0.6181
H423       H   -0.0342949293   -0.0990950980   -0.0161392188         -0.3812
C424       C    0.0410279293   -0.0994583837    0.0195558499         -0.3801
H425       H    0.0302904028   -0.1438921134    0.0167183877         -0.3813
C426       C    0.0081518305   -0.2070423466    0.0015547376          -0.378
C427       C   -0.0084840010   -0.2332633611    0.0023376965          0.6164
N428       N   -0.0276668193   -0.2203161443   -0.0125407946         -0.3802
N429       N   -0.0282437950   -0.1926377661   -0.0109969313          0.6183
C430       C   -0.0027253999   -0.2649637371   -0.0058255126         -0.3762
H431       H   -0.0448631626   -0.1879011550   -0.0046386236          0.6089
H432       H   -0.0247534186   -0.2232800524   -0.0304759163         -0.3678
H433       H    0.0212221712   -0.2071662737    0.0162770553          0.6167
H434       H   -0.0154965890   -0.2340665324    0.0207543312          0.6024
H435       H    0.0185092777   -0.2067747128   -0.0152363215         -0.3639
H436       H   -0.0144579105   -0.1814401247    0.0214625331          0.6018
C437       C    0.0445046424   -0.0721751778    0.0241417374          0.6178
H438       H    0.0614873048   -0.0689882243    0.0335608106          0.6171
H439       H    0.0300439788   -0.0648585794    0.0354019135          0.6059
H440       H    0.0454191770   -0.0621928217    0.0071407799         -0.3711
H441       H    0.0558079645   -0.1053550457    0.0078878733         -0.3679
H442       H    0.0436388719   -0.1084762789    0.0368789681          0.6097
C443       C   -0.0061978357   -0.2945079252    0.0079175806          0.6142
N444       N   -0.0012029434   -0.3233563358   -0.0034671655         -0.3767
N445       N    0.0030131389   -0.3069408256   -0.0144332418         -0.3684
N446       N    0.0011954015   -0.2824285825   -0.0152509705         -0.3687
C447       C   -0.0065524620   -0.3535506287    0.0053263847          0.6163
H448       H    0.0049554242   -0.2934443602    0.0245135271          0.6071
H449       H   -0.0246259971   -0.2947475343    0.0155087214          0.6034
H450       H   -0.0078655557   -0.2663897521   -0.0248750971         -0.3656
C451       C    0.0107533331   -0.3794253573    0.0093292677         -0.3805
C452       C   -0.0000000000   -0.4075309790    0.0000000000         -0.3777
N453       N   -0.0241853123   -0.3952544904   -0.0038889386           0.617
N454       N   -0.0214579900   -0.3688472699   -0.0117301845         -0.3774
H455       H   -0.0381673629   -0.3621423399   -0.0154794353         -0.3803
H456       H   -0.0332570557   -0.3941482669    0.0120471444          0.6038
H457       H    0.0146725586   -0.3806443620    0.0286178870          0.6083
H458       H    0.0076362552   -0.4101740701   -0.0179960043         -0.3637
H459       H    0.0281815316   -0.3764696435    0.0006182588         -0.3694
H460       H   -0.0174833340   -0.3516717241    0.0218015953          0.6022
C369       C   -0.0000000000    0.0924690210    0.0000000000         -0.3807
C370       C   -0.0177959520    0.1074785371   -0.0094437750          -0.381
C371       C   -0.0184574015    0.1326340762   -0.0106201032         -0.3813
C372       C   -0.0016479643    0.1490455860   -0.0025654508         -0.3813
C373       C    0.0162611456    0.1342154434    0.0068923978          -0.381
C374       C    0.0173249213    0.1085561979    0.0084758964         -0.3806
C375       C   -0.0025399039    0.1808352637   -0.0080358915          0.6158
H376       H   -0.0343426040    0.1401809496   -0.0195195724          0.6181
H377       H   -0.0336724577    0.0990950980   -0.0174006365         -0.3812
C378       C    0.0404801411    0.0994583837    0.0206659242         -0.3801
H379       H    0.0316959842    0.1438921134    0.0138700245         -0.3813
C380       C    0.0061930944    0.2070423466    0.0055240502          -0.378
C381       C   -0.0033058578    0.2332633611   -0.0081556362          0.6164
N382       N   -0.0267843000    0.2203161443   -0.0143291903         -0.3802
N383       N   -0.0259099822    0.1926377661   -0.0157263242          0.6183
C384       C   -0.0062815297    0.2649637371    0.0013808645         -0.3762
H385       H   -0.0309739267    0.1879011550   -0.0327846924          0.6089
H386       H   -0.0392465246    0.2232800524   -0.0011061252         -0.3678
H387       H    0.0258290768    0.2071662737    0.0069413164          0.6167
H388       H    0.0070447999    0.2340665324   -0.0249250342          0.6024
H389       H   -0.0008325550    0.2067747128    0.0239592510         -0.3639
H390       H    0.0082387565    0.1814401247   -0.0245314980          0.6018
C391       C    0.0462348758    0.0721751778    0.0206354778          0.6178
H392       H    0.0640418778    0.0689882243    0.0283840545          0.6171
H393       H    0.0463746435    0.0648585794    0.0023083715          0.6059
H394       H    0.0332980652    0.0621928217    0.0317038046         -0.3711
H395       H    0.0402110028    0.1053550457    0.0394945907         -0.3679
H396       H    0.0558173560    0.1084762789    0.0121996803          0.6097
C397       C    0.0025135164    0.2945079252   -0.0097356810          0.6142
N398       N   -0.0034835958    0.3233563358    0.0011544997         -0.3767
N399       N   -0.0096222089    0.3069408256    0.0111718651         -0.3684
N400       N   -0.0113770322    0.2824285825    0.0102266429         -0.3687
C401       C    0.0002412236    0.3535506287   -0.0084407905          0.6163
H402       H    0.0224702923    0.2934443602   -0.0109797633          0.6071
H403       H   -0.0026723391    0.2947475343   -0.0289796269          0.6034
H404       H   -0.0245276307    0.2663897521    0.0088900367         -0.3656
C405       C    0.0139461300    0.3794253573    0.0028591723         -0.3805
C406       C   -0.0000000000    0.4075309790    0.0000000000         -0.3777
N407       N   -0.0177996081    0.3952544904   -0.0168293531           0.617
N408       N   -0.0223638175    0.3688472699   -0.0098945556         -0.3774
H409       H   -0.0355045915    0.3621423399   -0.0208754518         -0.3803
H410       H   -0.0106703737    0.3941482669   -0.0337240058          0.6038
H411       H    0.0316391964    0.3806443620   -0.0057644329          0.6083
H412       H   -0.0096374094    0.4101740701    0.0170084951         -0.3637
H413       H    0.0176348541    0.3764696435    0.0219907454         -0.3694
H414       H    0.0066673519    0.3516717241   -0.0271389562          0.6022
C323       C   -0.0924690210   -0.0000000000    0.0000000000         -0.3807
C324       C   -0.1074785371    0.0150793695    0.0133601426          -0.381
C325       C   -0.1326340762    0.0154459626    0.0146589393         -0.3813
C326       C   -0.1490455860    0.0009991643    0.0028807976         -0.3813
C327       C   -0.1342154434   -0.0141868902   -0.0105196079          -0.381
C328       C   -0.1085561979   -0.0148488968   -0.0123086953         -0.3806
C329       C   -0.1808352637    0.0005810159    0.0084076801          0.6158
H330       H   -0.1401809496    0.0287959257    0.0270411319          0.6181
H331       H   -0.0990950980    0.0286423184    0.0248240640         -0.3812
C332       C   -0.0994583837   -0.0344923961   -0.0295972440         -0.3801
H333       H   -0.1438921134   -0.0275505760   -0.0209279419         -0.3813
C334       C   -0.2070423466   -0.0047220558   -0.0068243489          -0.378
C335       C   -0.2332633611    0.0012974034    0.0087040130          0.6164
N336       N   -0.2203161443    0.0226684808    0.0202203956         -0.3802
N337       N   -0.1926377661    0.0214904142    0.0213730332          0.6183
C338       C   -0.2649637371    0.0064301317    0.0001334488         -0.3762
H339       H   -0.1879011550    0.0224052563    0.0391436416          0.6089
H340       H   -0.2232800524    0.0378883282    0.0102950372         -0.3678
H341       H   -0.2071662737   -0.0234755636   -0.0128148739          0.6167
H342       H   -0.2340665324   -0.0127030821    0.0225725108          0.6024
H343       H   -0.2067747128    0.0064378078   -0.0230931481         -0.3639
H344       H   -0.1814401247   -0.0137711746    0.0219095015          0.6018
C345       C   -0.0721751778   -0.0400932328   -0.0309195629          0.6178
H346       H   -0.0689882243   -0.0555815823   -0.0426345444          0.6171
H347       H   -0.0648585794   -0.0445345274   -0.0131381889          0.6059
H348       H   -0.0621928217   -0.0249182763   -0.0386389943         -0.3711
H349       H   -0.1053550457   -0.0298075240   -0.0478357498         -0.3679
H350       H   -0.1084762789   -0.0513892936   -0.0249709819          0.6097
C351       C   -0.2945079252   -0.0047302983    0.0088727407          0.6142
N352       N   -0.3233563358    0.0036573221   -0.0003038173         -0.3767
N353       N   -0.3069408256    0.0119774399   -0.0085987446         -0.3684
N354       N   -0.2824285825    0.0134610997   -0.0072677288         -0.3687
C355       C   -0.3535506287   -0.0022173993    0.0081478999          0.6163
H356       H   -0.2934443602   -0.0244208311    0.0053937228          0.6071
H357       H   -0.2947475343   -0.0042103970    0.0287964014          0.6034
H358       H   -0.2663897521    0.0259296709   -0.0028791650         -0.3656
C359       C   -0.3794253573   -0.0128841550   -0.0060554074         -0.3805
C360       C   -0.4075309790   -0.0000000000    0.0000000000         -0.3777
N361       N   -0.3952544904    0.0133478893    0.0205398887           0.617
N362       N   -0.3688472699    0.0194135016    0.0148713994         -0.3774
H363       H   -0.3621423399    0.0296068683    0.0286320424         -0.3803
H364       H   -0.3941482669    0.0024492482    0.0352869186          0.6038
H365       H   -0.3806443620   -0.0321079412   -0.0018296289          0.6083
H366       H   -0.4101740701    0.0133633670   -0.0142684612         -0.3637
H367       H   -0.3764696435   -0.0119752221   -0.0255181312         -0.3694
H368       H   -0.3516717241   -0.0128562959    0.0248131453          0.6022
C277       C    0.0924690210   -0.0000000000    0.0000000000         -0.3807
C278       C    0.1074785371    0.0129845326   -0.0154039836          -0.381
C279       C    0.1326340762    0.0131590777   -0.0167421903         -0.3813
C280       C    0.1490455860    0.0005712289   -0.0029951664         -0.3813
C281       C    0.1342154434   -0.0125130292    0.0124641126          -0.381
C282       C    0.1085561979   -0.0129088336    0.0143302384         -0.3806
C283       C    0.1808352637   -0.0006432847   -0.0084031452          0.6158
H284       H    0.1401809496    0.0245741453   -0.0309279734          0.6181
H285       H    0.0990950980    0.0247433848   -0.0287120440         -0.3812
C286       C    0.0994583837   -0.0298401578    0.0342824624         -0.3801
H287       H    0.1438921134   -0.0242276627    0.0246988533         -0.3813
C288       C    0.2070423466   -0.0036834646    0.0074365071          -0.378
C289       C    0.2332633611    0.0000226085   -0.0088001470          0.6164
N290       N    0.2203161443    0.0194995977   -0.0232914171         -0.3802
N291       N    0.1926377661    0.0181669588   -0.0242612048          0.6183
C292       C    0.2649637371    0.0063429464   -0.0010636880         -0.3762
H293       H    0.1879011550    0.0164974042   -0.0419768489          0.6089
H294       H    0.2232800524    0.0359969096   -0.0156759595         -0.3678
H295       H    0.2071662737   -0.0213711336    0.0160809742          0.6167
H296       H    0.2340665324   -0.0158395206   -0.0204938070          0.6024
H297       H    0.2067747128    0.0097157909    0.0219167120         -0.3639
H298       H    0.1814401247   -0.0168002808   -0.0196830401          0.6018
C299       C    0.0721751778   -0.0351903072    0.0364023209          0.6178
H300       H    0.0689882243   -0.0488178678    0.0502377591          0.6171
H301       H    0.0648585794   -0.0421610409    0.0194520634          0.6059
H302       H    0.0621928217   -0.0190570243    0.0418416324         -0.3711
H303       H    0.1053550457   -0.0225621839    0.0516497367         -0.3679
H304       H    0.1084762789   -0.0472290495    0.0321531695          0.6097
C305       C    0.2945079252   -0.0059659361   -0.0080937541          0.6142
N306       N    0.3233563358    0.0036627498   -0.0002292897         -0.3767
N307       N    0.3069408256    0.0130969078    0.0067726272         -0.3684
N308       N    0.2824285825    0.0143720643    0.0052406920         -0.3687
C309       C    0.3535506287   -0.0033745324   -0.0077406501          0.6163
H310       H    0.2934443602   -0.0249446293   -0.0017985296          0.6071
H311       H    0.2947475343   -0.0083382150   -0.0278825096          0.6034
H312       H    0.2663897521    0.0260732193   -0.0009081072         -0.3656
C313       C    0.3794253573   -0.0118708483    0.0078582675         -0.3805
C314       C    0.4075309790   -0.0000000000    0.0000000000         -0.3777
N315       N    0.3952544904    0.0102310655   -0.0222570994           0.617
N316       N    0.3688472699    0.0170539687   -0.0175272563         -0.3774
H317       H    0.3621423399    0.0251460275   -0.0326195924         -0.3803
H318       H    0.3941482669   -0.0026892382   -0.0352694406          0.6038
H319       H    0.3806443620   -0.0315040506    0.0064623701          0.6083
H320       H    0.4101740701    0.0152896833    0.0121817137         -0.3637
H321       H    0.3764696435   -0.0081515962    0.0269839294         -0.3694
H322       H    0.3516717241   -0.0163157583   -0.0226885997          0.6022
C231       C   -0.0000000000    0.0000000000   -0.4075309790         -0.3807
C232       C    0.0130091633    0.0153831878   -0.3925214629          -0.381
C233       C    0.0142991688    0.0157796082   -0.3673659238         -0.3813
C234       C    0.0028570119    0.0010652734   -0.3509544140         -0.3813
C235       C   -0.0101899456   -0.0144254987   -0.3657845566          -0.381
C236       C   -0.0119633053   -0.0151285506   -0.3914438021         -0.3806
C237       C    0.0083920614    0.0007745769   -0.3191647363          0.6158
H238       H    0.0263704878    0.0294113164   -0.3598190504          0.6181
H239       H    0.0241575476    0.0292066680   -0.4009049020         -0.3812
C240       C   -0.0287946731   -0.0351651681   -0.4005416163         -0.3801
H241       H   -0.0202876138   -0.0280254477   -0.3561078866         -0.3813
C242       C   -0.0067137399   -0.0048780370   -0.2929576534          -0.378
C243       C    0.0086718099    0.0014976018   -0.2667366389          0.6164
N244       N    0.0196927400    0.0231283465   -0.2796838557         -0.3802
N245       N    0.0208722147    0.0219771496   -0.3073622339          0.6183
C246       C   -0.0000147386    0.0064314994   -0.2350362629         -0.3762
H247       H    0.0386170274    0.0233011885   -0.3120988450          0.6089
H248       H    0.0094193471    0.0381154707   -0.2767199476         -0.3678
H249       H   -0.0122705888   -0.0237645898   -0.2928337263          0.6167
H250       H    0.0228592010   -0.0121796332   -0.2659334676          0.6024
H251       H   -0.0232353465    0.0059040266   -0.2932252872         -0.3639
H252       H    0.0222209769   -0.0132627181   -0.3185598753          0.6018
C253       C   -0.0299875961   -0.0407949845   -0.4278248222          0.6178
H254       H   -0.0413426121   -0.0565491387   -0.4310117757          0.6171
H255       H   -0.0121086138   -0.0448254126   -0.4351414206          0.6059
H256       H   -0.0380546134   -0.0258019141   -0.4378071783         -0.3711
H257       H   -0.0471362779   -0.0309017596   -0.3946449543         -0.3679
H258       H   -0.0237803300   -0.0519509897   -0.3915237211          0.6097
C259       C    0.0089793726   -0.0045246123   -0.2054920748          0.6142
N260       N   -0.0003880023    0.0036493511   -0.1766436642         -0.3767
N261       N   -0.0088724254    0.0117761430   -0.1930591744         -0.3684
N262       N   -0.0075759468    0.0132900759   -0.2175714175         -0.3687
C263       C    0.0081968265   -0.0020290809   -0.1464493713          0.6163
H264       H    0.0059549535   -0.0242900755   -0.2065556398          0.6071
H265       H    0.0288857657   -0.0035458025   -0.2052524657          0.6034
H266       H   -0.0034758272    0.0258564508   -0.2336102479         -0.3656
C267       C   -0.0057569456   -0.0130202530   -0.1205746427         -0.3805
C268       C   -0.0000000000    0.0000000000   -0.0924690210         -0.3777
N269       N    0.0202268972    0.0138175904   -0.1047455096           0.617
N270       N    0.0144201593    0.0197509891   -0.1311527301         -0.3774
H271       H    0.0279422916    0.0302586987   -0.1378576601         -0.3803
H272       H    0.0352211199    0.0032616180   -0.1058517331          0.6038
H273       H   -0.0010893677   -0.0321415729   -0.1193556380          0.6083
H274       H   -0.0145725690    0.0130310704   -0.0898259299         -0.3637
H275       H   -0.0252354448   -0.0125599876   -0.1235303565         -0.3694
H276       H    0.0251027708   -0.0122811816   -0.1483282759          0.6022
C185       C   -0.0000000000    0.0000000000    0.4075309790         -0.3807
C186       C    0.0151902291    0.0132339615    0.3925214629          -0.381
C187       C    0.0155676375    0.0145296567    0.3673659238         -0.3813
C188       C    0.0010231468    0.0028723675    0.3509544140         -0.3813
C189       C   -0.0142740992   -0.0104009661    0.3657845566          -0.381
C190       C   -0.0149509984   -0.0121844722    0.3914438021         -0.3806
C191       C    0.0006510906    0.0084025440    0.3191647363          0.6158
H192       H    0.0290203671    0.0268001203    0.3598190504          0.6181
H193       H    0.0288482813    0.0245844101    0.4009049020         -0.3812
C194       C   -0.0347379498   -0.0293086521    0.4005416163         -0.3801
H195       H   -0.0277240949   -0.0206975253    0.3561078866         -0.3813
C196       C   -0.0047787863   -0.0067847439    0.2929576534          -0.378
C197       C    0.0013699238    0.0086928941    0.2667366389          0.6164
N198       N    0.0228362706    0.0200307056    0.2796838557         -0.3802
N199       N    0.0216678544    0.0211931247    0.3073622339          0.6183
C200       C    0.0064310207    0.0000798361    0.2350362629         -0.3762
H201       H    0.0227308185    0.0389554885    0.3120988450          0.6089
H202       H    0.0379728413    0.0099788041    0.2767199476         -0.3678
H203       H   -0.0235815854   -0.0126187126    0.2928337263          0.6167
H204       H   -0.0125144534    0.0226776320    0.2659334676          0.6024
H205       H    0.0062450564   -0.0231460175    0.2932252872         -0.3639
H206       H   -0.0135880363    0.0220235504    0.3185598753          0.6018
C207       C   -0.0403496160   -0.0305842307    0.4278248222          0.6178
H208       H   -0.0559350951   -0.0421696787    0.4310117757          0.6171
H209       H   -0.0446425129   -0.0127664476    0.4351414206          0.6059
H210       H   -0.0252395438   -0.0384299076    0.4378071783         -0.3711
H211       H   -0.0302052950   -0.0475855818    0.3946449543         -0.3679
H212       H   -0.0515956908   -0.0245416812    0.3915237211          0.6097
C213       C   -0.0046561618    0.0089118688    0.2054920748          0.6142
N214       N    0.0036546620   -0.0003342978    0.1766436642         -0.3767
N215       N    0.0119053358   -0.0086983018    0.1930591744         -0.3684
N216       N    0.0134000407   -0.0073797015    0.2175714175         -0.3687
C217       C   -0.0021493931    0.0081661033    0.1464493713          0.6163
H218       H   -0.0243750149    0.0055971320    0.2065556398          0.6071
H219       H   -0.0039701749    0.0288305027    0.2052524657          0.6034
H220       H    0.0259047661   -0.0030952408    0.2336102479         -0.3656
C221       C   -0.0129341912   -0.0059477817    0.1205746427         -0.3805
C222       C   -0.0000000000   -0.0000000000    0.0924690210         -0.3777
N223       N    0.0135186666    0.0204278934    0.1047455096           0.617
N224       N    0.0195368099    0.0147090320    0.1311527301         -0.3774
H225       H    0.0298445449    0.0283842147    0.1378576601         -0.3803
H226       H    0.0027433504    0.0352652728    0.1058517331          0.6038
H227       H   -0.0321220790   -0.0015618812    0.1193556380          0.6083
H228       H    0.0132439464   -0.0143793758    0.0898259299         -0.3637
H229       H   -0.0121875507   -0.0254174069    0.1235303565         -0.3694
H230       H   -0.0126489817    0.0249194660    0.1483282759          0.6022
loop_
_geom_bond_atom_site_label_1
_geom_bond_atom_site_label_2
_geom_bond_distance
_geom_bond_site_symmetry_2
_ccdc_geom_bond_type
Zn1          O5 1.942       .   S
Zn1          O6 1.922       .   S
Zn1         O10 1.922       .   S
Zn1         O17 1.922       .   S
Zn2          O5 1.942       .   S
Zn2          O7 1.922       .   S
Zn2          O9 1.922       .   S
Zn2         O13 1.922       .   S
Zn3          O5 1.942       .   S
Zn3          O8 1.922       .   S
Zn3         O11 1.922       .   S
Zn3         O14 1.922       .   S
Zn4          O5 1.942       .   S
Zn4         O12 1.922       .   S
Zn4         O15 1.922       .   S
Zn4         O16 1.922       .   S
O6          C18 1.304       .   A
O7          C19 1.304       .   A
O8          C20 1.304       .   A
O9          C18 1.304       .   A
O10         C20 1.304       .   A
O11         C19 1.304       .   A
O12         C21 1.304       .   A
O13         C22 1.304       .   A
O14         C21 1.304       .   A
O15         C22 1.304       .   A
O16         C23 1.304       .   A
O17         C23 1.304       .   A
C18        C222 1.540       .   S
C19        C277 1.540       .   S
C20        C415 1.540       .   S
C21        C268 1.540       .   S
C22        C369 1.540       .   S
C23        C323 1.540       .   S
Zn24        O28 1.942       .   S
Zn24        O29 1.922       .   S
Zn24        O33 1.922       .   S
Zn24        O40 1.922       .   S
Zn25        O28 1.942       .   S
Zn25        O30 1.922       .   S
Zn25        O32 1.922       .   S
Zn25        O36 1.922       .   S
Zn26        O28 1.942       .   S
Zn26        O31 1.922       .   S
Zn26        O34 1.922       .   S
Zn26        O37 1.922       .   S
Zn27        O28 1.942       .   S
Zn27        O35 1.922       .   S
Zn27        O38 1.922       .   S
Zn27        O39 1.922       .   S
O29         C41 1.304       .   A
O30         C42 1.304       .   A
O31         C43 1.304       .   A
O32         C41 1.304       .   A
O33         C43 1.304       .   A
O34         C42 1.304       .   A
O35         C44 1.304       .   A
O36         C45 1.304       .   A
O37         C44 1.304       .   A
O38         C45 1.304       .   A
O39         C46 1.304       .   A
O40         C46 1.304       .   A
C41        C185 1.540   1_655   S
C42        C461 1.540       .   S
C43        C590 1.540       .   S
C44        C231 1.540   1_656   S
C45        C636 1.540       .   S
C46        C544 1.540       .   S
Zn47        O51 1.942       .   S
Zn47        O52 1.922       .   S
Zn47        O56 1.922       .   S
Zn47        O63 1.922       .   S
Zn48        O51 1.942       .   S
Zn48        O53 1.922       .   S
Zn48        O55 1.922       .   S
Zn48        O59 1.922       .   S
Zn49        O51 1.942       .   S
Zn49        O54 1.922       .   S
Zn49        O57 1.922       .   S
Zn49        O60 1.922       .   S
Zn50        O51 1.942       .   S
Zn50        O58 1.922       .   S
Zn50        O61 1.922       .   S
Zn50        O62 1.922       .   S
O52         C64 1.304       .   A
O53         C65 1.304       .   A
O54         C66 1.304       .   A
O55         C64 1.304       .   A
O56         C66 1.304       .   A
O57         C65 1.304       .   A
O58         C67 1.304       .   A
O59         C68 1.304       .   A
O60         C67 1.304       .   A
O61         C68 1.304       .   A
O62         C69 1.304       .   A
O63         C69 1.304       .   A
C64        C406 1.540   1_655   S
C65        C682 1.540       .   S
C66        C737 1.540       .   S
C67        C452 1.540   1_665   S
C68        C820 1.540       .   S
C69        C728 1.540       .   S
Zn70        O74 1.942       .   S
Zn70        O75 1.922       .   S
Zn70        O79 1.922       .   S
Zn70        O86 1.922       .   S
Zn71        O74 1.942       .   S
Zn71        O76 1.922       .   S
Zn71        O78 1.922       .   S
Zn71        O82 1.922       .   S
Zn72        O74 1.942       .   S
Zn72        O77 1.922       .   S
Zn72        O80 1.922       .   S
Zn72        O83 1.922       .   S
Zn73        O74 1.942       .   S
Zn73        O81 1.922       .   S
Zn73        O84 1.922       .   S
Zn73        O85 1.922       .   S
O75         C87 1.304       .   A
O76         C88 1.304       .   A
O77         C89 1.304       .   A
O78         C87 1.304       .   A
O79         C89 1.304       .   A
O80         C88 1.304       .   A
O81         C90 1.304       .   A
O82         C91 1.304       .   A
O83         C90 1.304       .   A
O84         C91 1.304       .   A
O85         C92 1.304       .   A
O86         C92 1.304       .   A
C87        C553 1.540       .   S
C88        C645 1.540       .   S
C89        C875 1.540       .   S
C90        C599 1.540   1_565   S
C91        C829 1.540       .   S
C92        C691 1.540   1_556   S
Zn93        O97 1.942       .   S
Zn93        O98 1.922       .   S
Zn93       O102 1.922       .   S
Zn93       O109 1.922       .   S
Zn94        O97 1.942       .   S
Zn94        O99 1.922       .   S
Zn94       O101 1.922       .   S
Zn94       O105 1.922       .   S
Zn95        O97 1.942       .   S
Zn95       O100 1.922       .   S
Zn95       O103 1.922       .   S
Zn95       O106 1.922       .   S
Zn96        O97 1.942       .   S
Zn96       O104 1.922       .   S
Zn96       O107 1.922       .   S
Zn96       O108 1.922       .   S
O98        C110 1.304       .   A
O99        C111 1.304       .   A
O100       C112 1.304       .   A
O101       C110 1.304       .   A
O102       C112 1.304       .   A
O103       C111 1.304       .   A
O104       C113 1.304       .   A
O105       C114 1.304       .   A
O106       C113 1.304       .   A
O107       C114 1.304       .   A
O108       C115 1.304       .   A
O109       C115 1.304       .   A
C110       C314 1.540   1_565   S
C111       C921 1.540       .   S
C112      C1096 1.540       .   S
C113       C360 1.540   1_665   S
C114      C1050 1.540       .   S
C115       C967 1.540       .   S
Zn116      O120 1.942       .   S
Zn116      O121 1.922       .   S
Zn116      O125 1.922       .   S
Zn116      O132 1.922       .   S
Zn117      O120 1.942       .   S
Zn117      O122 1.922       .   S
Zn117      O124 1.922       .   S
Zn117      O128 1.922       .   S
Zn118      O120 1.942       .   S
Zn118      O123 1.922       .   S
Zn118      O126 1.922       .   S
Zn118      O129 1.922       .   S
Zn119      O120 1.942       .   S
Zn119      O127 1.922       .   S
Zn119      O130 1.922       .   S
Zn119      O131 1.922       .   S
O121       C133 1.304       .   A
O122       C134 1.304       .   A
O123       C135 1.304       .   A
O124       C133 1.304       .   A
O125       C135 1.304       .   A
O126       C134 1.304       .   A
O127       C136 1.304       .   A
O128       C137 1.304       .   A
O129       C136 1.304       .   A
O130       C137 1.304       .   A
O131       C138 1.304       .   A
O132       C138 1.304       .   A
C133       C498 1.540   1_465   S
C134       C958 1.540       .   S
C135      C1105 1.540       .   S
C136       C507 1.540   1_565   S
C137      C1151 1.540       .   S
C138      C1004 1.540   1_556   S
Zn139      O143 1.942       .   S
Zn139      O144 1.922       .   S
Zn139      O148 1.922       .   S
Zn139      O155 1.922       .   S
Zn140      O143 1.942       .   S
Zn140      O145 1.922       .   S
Zn140      O147 1.922       .   S
Zn140      O151 1.922       .   S
Zn141      O143 1.942       .   S
Zn141      O146 1.922       .   S
Zn141      O149 1.922       .   S
Zn141      O152 1.922       .   S
Zn142      O143 1.942       .   S
Zn142      O150 1.922       .   S
Zn142      O153 1.922       .   S
Zn142      O154 1.922       .   S
O144       C156 1.304       .   A
O145       C157 1.304       .   A
O146       C158 1.304       .   A
O147       C156 1.304       .   A
O148       C158 1.304       .   A
O149       C157 1.304       .   A
O150       C159 1.304       .   A
O151       C160 1.304       .   A
O152       C159 1.304       .   A
O153       C160 1.304       .   A
O154       C161 1.304       .   A
O155       C161 1.304       .   A
C156       C774 1.540   1_455   S
C157      C1013 1.540   1_545   S
C158      C1243 1.540       .   S
C159       C783 1.540       .   S
C160      C1197 1.540       .   S
C161      C1059 1.540       .   S
Zn162      O166 1.942       .   S
Zn162      O167 1.922       .   S
Zn162      O171 1.922       .   S
Zn162      O178 1.922       .   S
Zn163      O166 1.942       .   S
Zn163      O168 1.922       .   S
Zn163      O170 1.922       .   S
Zn163      O174 1.922       .   S
Zn164      O166 1.942       .   S
Zn164      O169 1.922       .   S
Zn164      O172 1.922       .   S
Zn164      O175 1.922       .   S
Zn165      O166 1.942       .   S
Zn165      O173 1.922       .   S
Zn165      O176 1.922       .   S
Zn165      O177 1.922       .   S
O167       C179 1.304       .   A
O168       C180 1.304       .   A
O169       C181 1.304       .   A
O170       C179 1.304       .   A
O171       C181 1.304       .   A
O172       C180 1.304       .   A
O173       C182 1.304       .   A
O174       C183 1.304       .   A
O175       C182 1.304       .   A
O176       C183 1.304       .   A
O177       C184 1.304       .   A
O178       C184 1.304       .   A
C179      C1188 1.540       .   S
C180      C1280 1.540   1_556   S
C181       C866 1.540   1_455   S
C182      C1142 1.540   1_545   S
C183       C912 1.540       .   S
C184      C1234 1.540       .   S
C1243     C1244 0.018       .   A
C1243     C1248 0.018       .   A
C1244     C1245 0.018       .   A
C1244     H1251 0.014       .   A
C1245     C1246 0.018       .   A
C1245     H1250 0.014       .   A
C1246     C1247 0.018       .   A
C1246     C1249 0.023       .   A
C1247     C1248 0.018       .   A
C1247     H1253 0.014       .   A
C1248     C1252 0.020       .   A
C1249     C1254 0.022       .   A
C1249     N1257 0.020       .   A
C1249     H1264 0.014       .   A
C1252     C1265 0.020       .   A
C1252     H1269 0.014       .   A
C1252     H1270 0.014       .   A
C1254     C1255 0.022       .   A
C1254     H1261 0.014       .   A
C1254     H1263 0.014       .   A
C1255     N1256 0.020       .   A
C1255     C1258 0.024       .   A
C1255     H1262 0.014       .   A
N1256     N1257 0.020       .   A
N1256     H1260 0.013       .   A
N1257     H1259 0.013       .   A
C1258     C1271 0.023       .   A
C1258     N1274 0.015       .   A
C1258     H1278 0.014       .   A
C1265     H1266 0.014       .   A
C1265     H1267 0.014       .   A
C1265     H1268 0.014       .   A
C1271     N1272 0.023       .   A
C1271     H1276 0.014       .   A
C1271     H1277 0.014       .   A
N1272     N1273 0.014       .   A
N1272     C1275 0.023       .   A
N1273     N1274 0.018       .   A
C1275     C1279 0.022       .   A
C1275     N1282 0.020       .   A
C1275     H1288 0.014       .   A
C1279     C1280 0.023       .   A
C1279     H1285 0.014       .   A
C1279     H1287 0.014       .   A
C1280     N1281 0.020       .   A
C1280     H1286 0.014       .   A
N1281     N1282 0.020       .   A
N1281     H1284 0.013       .   A
N1282     H1283 0.013       .   A
C1197     C1198 0.018       .   A
C1197     C1202 0.018       .   A
C1198     C1199 0.018       .   A
C1198     H1205 0.014       .   A
C1199     C1200 0.018       .   A
C1199     H1204 0.014       .   A
C1200     C1201 0.018       .   A
C1200     C1203 0.023       .   A
C1201     C1202 0.018       .   A
C1201     H1207 0.014       .   A
C1202     C1206 0.020       .   A
C1203     C1208 0.022       .   A
C1203     N1211 0.020       .   A
C1203     H1218 0.014       .   A
C1206     C1219 0.020       .   A
C1206     H1223 0.014       .   A
C1206     H1224 0.014       .   A
C1208     C1209 0.022       .   A
C1208     H1215 0.014       .   A
C1208     H1217 0.014       .   A
C1209     N1210 0.020       .   A
C1209     C1212 0.024       .   A
C1209     H1216 0.014       .   A
N1210     N1211 0.020       .   A
N1210     H1214 0.013       .   A
N1211     H1213 0.013       .   A
C1212     C1225 0.023       .   A
C1212     N1228 0.015       .   A
C1212     H1232 0.014       .   A
C1219     H1220 0.014       .   A
C1219     H1221 0.014       .   A
C1219     H1222 0.014       .   A
C1225     N1226 0.023       .   A
C1225     H1230 0.014       .   A
C1225     H1231 0.014       .   A
N1226     N1227 0.014       .   A
N1226     C1229 0.023       .   A
N1227     N1228 0.018       .   A
C1229     C1233 0.022       .   A
C1229     N1236 0.020       .   A
C1229     H1242 0.014       .   A
C1233     C1234 0.023       .   A
C1233     H1239 0.014       .   A
C1233     H1241 0.014       .   A
C1234     N1235 0.020       .   A
C1234     H1240 0.014       .   A
N1235     N1236 0.020       .   A
N1235     H1238 0.013       .   A
N1236     H1237 0.013       .   A
C1151     C1152 0.018       .   A
C1151     C1156 0.018       .   A
C1152     C1153 0.018       .   A
C1152     H1159 0.014       .   A
C1153     C1154 0.018       .   A
C1153     H1158 0.014       .   A
C1154     C1155 0.018       .   A
C1154     C1157 0.023       .   A
C1155     C1156 0.018       .   A
C1155     H1161 0.014       .   A
C1156     C1160 0.020       .   A
C1157     C1162 0.022       .   A
C1157     N1165 0.020       .   A
C1157     H1172 0.014       .   A
C1160     C1173 0.020       .   A
C1160     H1177 0.014       .   A
C1160     H1178 0.014       .   A
C1162     C1163 0.022       .   A
C1162     H1169 0.014       .   A
C1162     H1171 0.014       .   A
C1163     N1164 0.020       .   A
C1163     C1166 0.024       .   A
C1163     H1170 0.014       .   A
N1164     N1165 0.020       .   A
N1164     H1168 0.013       .   A
N1165     H1167 0.013       .   A
C1166     C1179 0.023       .   A
C1166     N1182 0.015       .   A
C1166     H1186 0.014       .   A
C1173     H1174 0.014       .   A
C1173     H1175 0.014       .   A
C1173     H1176 0.014       .   A
C1179     N1180 0.023       .   A
C1179     H1184 0.014       .   A
C1179     H1185 0.014       .   A
N1180     N1181 0.014       .   A
N1180     C1183 0.023       .   A
N1181     N1182 0.018       .   A
C1183     C1187 0.022       .   A
C1183     N1190 0.020       .   A
C1183     H1196 0.014       .   A
C1187     C1188 0.023       .   A
C1187     H1193 0.014       .   A
C1187     H1195 0.014       .   A
C1188     N1189 0.020       .   A
C1188     H1194 0.014       .   A
N1189     N1190 0.020       .   A
N1189     H1192 0.013       .   A
N1190     H1191 0.013       .   A
C1105     C1106 0.018       .   A
C1105     C1110 0.018       .   A
C1106     C1107 0.018       .   A
C1106     H1113 0.014       .   A
C1107     C1108 0.018       .   A
C1107     H1112 0.014       .   A
C1108     C1109 0.018       .   A
C1108     C1111 0.023       .   A
C1109     C1110 0.018       .   A
C1109     H1115 0.014       .   A
C1110     C1114 0.020       .   A
C1111     C1116 0.022       .   A
C1111     N1119 0.020       .   A
C1111     H1126 0.014       .   A
C1114     C1127 0.020       .   A
C1114     H1131 0.014       .   A
C1114     H1132 0.014       .   A
C1116     C1117 0.022       .   A
C1116     H1123 0.014       .   A
C1116     H1125 0.014       .   A
C1117     N1118 0.020       .   A
C1117     C1120 0.024       .   A
C1117     H1124 0.014       .   A
N1118     N1119 0.020       .   A
N1118     H1122 0.013       .   A
N1119     H1121 0.013       .   A
C1120     C1133 0.023       .   A
C1120     N1136 0.015       .   A
C1120     H1140 0.014       .   A
C1127     H1128 0.014       .   A
C1127     H1129 0.014       .   A
C1127     H1130 0.014       .   A
C1133     N1134 0.023       .   A
C1133     H1138 0.014       .   A
C1133     H1139 0.014       .   A
N1134     N1135 0.014       .   A
N1134     C1137 0.023       .   A
N1135     N1136 0.018       .   A
C1137     C1141 0.022       .   A
C1137     N1144 0.020       .   A
C1137     H1150 0.014       .   A
C1141     C1142 0.023       .   A
C1141     H1147 0.014       .   A
C1141     H1149 0.014       .   A
C1142     N1143 0.020       .   A
C1142     H1148 0.014       .   A
N1143     N1144 0.020       .   A
N1143     H1146 0.013       .   A
N1144     H1145 0.013       .   A
C1059     C1060 0.018       .   A
C1059     C1064 0.018       .   A
C1060     C1061 0.018       .   A
C1060     H1067 0.014       .   A
C1061     C1062 0.018       .   A
C1061     H1066 0.014       .   A
C1062     C1063 0.018       .   A
C1062     C1065 0.023       .   A
C1063     C1064 0.018       .   A
C1063     H1069 0.014       .   A
C1064     C1068 0.020       .   A
C1065     C1070 0.022       .   A
C1065     N1073 0.020       .   A
C1065     H1080 0.014       .   A
C1068     C1081 0.020       .   A
C1068     H1085 0.014       .   A
C1068     H1086 0.014       .   A
C1070     C1071 0.022       .   A
C1070     H1077 0.014       .   A
C1070     H1079 0.014       .   A
C1071     N1072 0.020       .   A
C1071     C1074 0.024       .   A
C1071     H1078 0.014       .   A
N1072     N1073 0.020       .   A
N1072     H1076 0.013       .   A
N1073     H1075 0.013       .   A
C1074     C1087 0.023       .   A
C1074     N1090 0.015       .   A
C1074     H1094 0.014       .   A
C1081     H1082 0.014       .   A
C1081     H1083 0.014       .   A
C1081     H1084 0.014       .   A
C1087     N1088 0.023       .   A
C1087     H1092 0.014       .   A
C1087     H1093 0.014       .   A
N1088     N1089 0.014       .   A
N1088     C1091 0.023       .   A
N1089     N1090 0.018       .   A
C1091     C1095 0.022       .   A
C1091     N1098 0.020       .   A
C1091     H1104 0.014       .   A
C1095     C1096 0.023       .   A
C1095     H1101 0.014       .   A
C1095     H1103 0.014       .   A
C1096     N1097 0.020       .   A
C1096     H1102 0.014       .   A
N1097     N1098 0.020       .   A
N1097     H1100 0.013       .   A
N1098     H1099 0.013       .   A
C1013     C1014 0.018       .   A
C1013     C1018 0.018       .   A
C1014     C1015 0.018       .   A
C1014     H1021 0.014       .   A
C1015     C1016 0.018       .   A
C1015     H1020 0.014       .   A
C1016     C1017 0.018       .   A
C1016     C1019 0.023       .   A
C1017     C1018 0.018       .   A
C1017     H1023 0.014       .   A
C1018     C1022 0.020       .   A
C1019     C1024 0.022       .   A
C1019     N1027 0.020       .   A
C1019     H1034 0.014       .   A
C1022     C1035 0.020       .   A
C1022     H1039 0.014       .   A
C1022     H1040 0.014       .   A
C1024     C1025 0.022       .   A
C1024     H1031 0.014       .   A
C1024     H1033 0.014       .   A
C1025     N1026 0.020       .   A
C1025     C1028 0.024       .   A
C1025     H1032 0.014       .   A
N1026     N1027 0.020       .   A
N1026     H1030 0.013       .   A
N1027     H1029 0.013       .   A
C1028     C1041 0.023       .   A
C1028     N1044 0.015       .   A
C1028     H1048 0.014       .   A
C1035     H1036 0.014       .   A
C1035     H1037 0.014       .   A
C1035     H1038 0.014       .   A
C1041     N1042 0.023       .   A
C1041     H1046 0.014       .   A
C1041     H1047 0.014       .   A
N1042     N1043 0.014       .   A
N1042     C1045 0.023       .   A
N1043     N1044 0.018       .   A
C1045     C1049 0.022       .   A
C1045     N1052 0.020       .   A
C1045     H1058 0.014       .   A
C1049     C1050 0.023       .   A
C1049     H1055 0.014       .   A
C1049     H1057 0.014       .   A
C1050     N1051 0.020       .   A
C1050     H1056 0.014       .   A
N1051     N1052 0.020       .   A
N1051     H1054 0.013       .   A
N1052     H1053 0.013       .   A
C967       C968 0.018       .   A
C967       C972 0.018       .   A
C968       C969 0.018       .   A
C968       H975 0.014       .   A
C969       C970 0.018       .   A
C969       H974 0.014       .   A
C970       C971 0.018       .   A
C970       C973 0.023       .   A
C971       C972 0.018       .   A
C971       H977 0.014       .   A
C972       C976 0.020       .   A
C973       C978 0.022       .   A
C973       N981 0.020       .   A
C973       H988 0.014       .   A
C976       C989 0.020       .   A
C976       H993 0.014       .   A
C976       H994 0.014       .   A
C978       C979 0.022       .   A
C978       H985 0.014       .   A
C978       H987 0.014       .   A
C979       N980 0.020       .   A
C979       C982 0.024       .   A
C979       H986 0.014       .   A
N980       N981 0.020       .   A
N980       H984 0.013       .   A
N981       H983 0.013       .   A
C982       C995 0.023       .   A
C982       N998 0.015       .   A
C982      H1002 0.014       .   A
C989       H990 0.014       .   A
C989       H991 0.014       .   A
C989       H992 0.014       .   A
C995       N996 0.023       .   A
C995      H1000 0.014       .   A
C995      H1001 0.014       .   A
N996       N997 0.014       .   A
N996       C999 0.023       .   A
N997       N998 0.018       .   A
C999      C1003 0.022       .   A
C999      N1006 0.020       .   A
C999      H1012 0.014       .   A
C1003     C1004 0.023       .   A
C1003     H1009 0.014       .   A
C1003     H1011 0.014       .   A
C1004     N1005 0.020       .   A
C1004     H1010 0.014       .   A
N1005     N1006 0.020       .   A
N1005     H1008 0.013       .   A
N1006     H1007 0.013       .   A
C921       C922 0.018       .   A
C921       C926 0.018       .   A
C922       C923 0.018       .   A
C922       H929 0.014       .   A
C923       C924 0.018       .   A
C923       H928 0.014       .   A
C924       C925 0.018       .   A
C924       C927 0.023       .   A
C925       C926 0.018       .   A
C925       H931 0.014       .   A
C926       C930 0.020       .   A
C927       C932 0.022       .   A
C927       N935 0.020       .   A
C927       H942 0.014       .   A
C930       C943 0.020       .   A
C930       H947 0.014       .   A
C930       H948 0.014       .   A
C932       C933 0.022       .   A
C932       H939 0.014       .   A
C932       H941 0.014       .   A
C933       N934 0.020       .   A
C933       C936 0.024       .   A
C933       H940 0.014       .   A
N934       N935 0.020       .   A
N934       H938 0.013       .   A
N935       H937 0.013       .   A
C936       C949 0.023       .   A
C936       N952 0.015       .   A
C936       H956 0.014       .   A
C943       H944 0.014       .   A
C943       H945 0.014       .   A
C943       H946 0.014       .   A
C949       N950 0.023       .   A
C949       H954 0.014       .   A
C949       H955 0.014       .   A
N950       N951 0.014       .   A
N950       C953 0.023       .   A
N951       N952 0.018       .   A
C953       C957 0.022       .   A
C953       N960 0.020       .   A
C953       H966 0.014       .   A
C957       C958 0.023       .   A
C957       H963 0.014       .   A
C957       H965 0.014       .   A
C958       N959 0.020       .   A
C958       H964 0.014       .   A
N959       N960 0.020       .   A
N959       H962 0.013       .   A
N960       H961 0.013       .   A
C875       C876 0.018       .   A
C875       C880 0.018       .   A
C876       C877 0.018       .   A
C876       H883 0.014       .   A
C877       C878 0.018       .   A
C877       H882 0.014       .   A
C878       C879 0.018       .   A
C878       C881 0.023       .   A
C879       C880 0.018       .   A
C879       H885 0.014       .   A
C880       C884 0.020       .   A
C881       C886 0.022       .   A
C881       N889 0.020       .   A
C881       H896 0.014       .   A
C884       C897 0.020       .   A
C884       H901 0.014       .   A
C884       H902 0.014       .   A
C886       C887 0.022       .   A
C886       H893 0.014       .   A
C886       H895 0.014       .   A
C887       N888 0.020       .   A
C887       C890 0.024       .   A
C887       H894 0.014       .   A
N888       N889 0.020       .   A
N888       H892 0.013       .   A
N889       H891 0.013       .   A
C890       C903 0.023       .   A
C890       N906 0.015       .   A
C890       H910 0.014       .   A
C897       H898 0.014       .   A
C897       H899 0.014       .   A
C897       H900 0.014       .   A
C903       N904 0.023       .   A
C903       H908 0.014       .   A
C903       H909 0.014       .   A
N904       N905 0.014       .   A
N904       C907 0.023       .   A
N905       N906 0.018       .   A
C907       C911 0.022       .   A
C907       N914 0.020       .   A
C907       H920 0.014       .   A
C911       C912 0.023       .   A
C911       H917 0.014       .   A
C911       H919 0.014       .   A
C912       N913 0.020       .   A
C912       H918 0.014       .   A
N913       N914 0.020       .   A
N913       H916 0.013       .   A
N914       H915 0.013       .   A
C829       C830 0.018       .   A
C829       C834 0.018       .   A
C830       C831 0.018       .   A
C830       H837 0.014       .   A
C831       C832 0.018       .   A
C831       H836 0.014       .   A
C832       C833 0.018       .   A
C832       C835 0.023       .   A
C833       C834 0.018       .   A
C833       H839 0.014       .   A
C834       C838 0.020       .   A
C835       C840 0.022       .   A
C835       N843 0.020       .   A
C835       H850 0.014       .   A
C838       C851 0.020       .   A
C838       H855 0.014       .   A
C838       H856 0.014       .   A
C840       C841 0.022       .   A
C840       H847 0.014       .   A
C840       H849 0.014       .   A
C841       N842 0.020       .   A
C841       C844 0.024       .   A
C841       H848 0.014       .   A
N842       N843 0.020       .   A
N842       H846 0.013       .   A
N843       H845 0.013       .   A
C844       C857 0.023       .   A
C844       N860 0.015       .   A
C844       H864 0.014       .   A
C851       H852 0.014       .   A
C851       H853 0.014       .   A
C851       H854 0.014       .   A
C857       N858 0.023       .   A
C857       H862 0.014       .   A
C857       H863 0.014       .   A
N858       N859 0.014       .   A
N858       C861 0.023       .   A
N859       N860 0.018       .   A
C861       C865 0.022       .   A
C861       N868 0.020       .   A
C861       H874 0.014       .   A
C865       C866 0.023       .   A
C865       H871 0.014       .   A
C865       H873 0.014       .   A
C866       N867 0.020       .   A
C866       H872 0.014       .   A
N867       N868 0.020       .   A
N867       H870 0.013       .   A
N868       H869 0.013       .   A
C783       C784 0.018       .   A
C783       C788 0.018       .   A
C784       C785 0.018       .   A
C784       H791 0.014       .   A
C785       C786 0.018       .   A
C785       H790 0.014       .   A
C786       C787 0.018       .   A
C786       C789 0.023       .   A
C787       C788 0.018       .   A
C787       H793 0.014       .   A
C788       C792 0.020       .   A
C789       C794 0.022       .   A
C789       N797 0.020       .   A
C789       H804 0.014       .   A
C792       C805 0.020       .   A
C792       H809 0.014       .   A
C792       H810 0.014       .   A
C794       C795 0.022       .   A
C794       H801 0.014       .   A
C794       H803 0.014       .   A
C795       N796 0.020       .   A
C795       C798 0.024       .   A
C795       H802 0.014       .   A
N796       N797 0.020       .   A
N796       H800 0.013       .   A
N797       H799 0.013       .   A
C798       C811 0.023       .   A
C798       N814 0.015       .   A
C798       H818 0.014       .   A
C805       H806 0.014       .   A
C805       H807 0.014       .   A
C805       H808 0.014       .   A
C811       N812 0.023       .   A
C811       H816 0.014       .   A
C811       H817 0.014       .   A
N812       N813 0.014       .   A
N812       C815 0.023       .   A
N813       N814 0.018       .   A
C815       C819 0.022       .   A
C815       N822 0.020       .   A
C815       H828 0.014       .   A
C819       C820 0.023       .   A
C819       H825 0.014       .   A
C819       H827 0.014       .   A
C820       N821 0.020       .   A
C820       H826 0.014       .   A
N821       N822 0.020       .   A
N821       H824 0.013       .   A
N822       H823 0.013       .   A
C737       C738 0.018       .   A
C737       C742 0.018       .   A
C738       C739 0.018       .   A
C738       H745 0.014       .   A
C739       C740 0.018       .   A
C739       H744 0.014       .   A
C740       C741 0.018       .   A
C740       C743 0.023       .   A
C741       C742 0.018       .   A
C741       H747 0.014       .   A
C742       C746 0.020       .   A
C743       C748 0.022       .   A
C743       N751 0.020       .   A
C743       H758 0.014       .   A
C746       C759 0.020       .   A
C746       H763 0.014       .   A
C746       H764 0.014       .   A
C748       C749 0.022       .   A
C748       H755 0.014       .   A
C748       H757 0.014       .   A
C749       N750 0.020       .   A
C749       C752 0.024       .   A
C749       H756 0.014       .   A
N750       N751 0.020       .   A
N750       H754 0.013       .   A
N751       H753 0.013       .   A
C752       C765 0.023       .   A
C752       N768 0.015       .   A
C752       H772 0.014       .   A
C759       H760 0.014       .   A
C759       H761 0.014       .   A
C759       H762 0.014       .   A
C765       N766 0.023       .   A
C765       H770 0.014       .   A
C765       H771 0.014       .   A
N766       N767 0.014       .   A
N766       C769 0.023       .   A
N767       N768 0.018       .   A
C769       C773 0.022       .   A
C769       N776 0.020       .   A
C769       H782 0.014       .   A
C773       C774 0.023       .   A
C773       H779 0.014       .   A
C773       H781 0.014       .   A
C774       N775 0.020       .   A
C774       H780 0.014       .   A
N775       N776 0.020       .   A
N775       H778 0.013       .   A
N776       H777 0.013       .   A
C691       C692 0.018       .   A
C691       C696 0.018       .   A
C692       C693 0.018       .   A
C692       H699 0.014       .   A
C693       C694 0.018       .   A
C693       H698 0.014       .   A
C694       C695 0.018       .   A
C694       C697 0.023       .   A
C695       C696 0.018       .   A
C695       H701 0.014       .   A
C696       C700 0.020       .   A
C697       C702 0.022       .   A
C697       N705 0.020       .   A
C697       H712 0.014       .   A
C700       C713 0.020       .   A
C700       H717 0.014       .   A
C700       H718 0.014       .   A
C702       C703 0.022       .   A
C702       H709 0.014       .   A
C702       H711 0.014       .   A
C703       N704 0.020       .   A
C703       C706 0.024       .   A
C703       H710 0.014       .   A
N704       N705 0.020       .   A
N704       H708 0.013       .   A
N705       H707 0.013       .   A
C706       C719 0.023       .   A
C706       N722 0.015       .   A
C706       H726 0.014       .   A
C713       H714 0.014       .   A
C713       H715 0.014       .   A
C713       H716 0.014       .   A
C719       N720 0.023       .   A
C719       H724 0.014       .   A
C719       H725 0.014       .   A
N720       N721 0.014       .   A
N720       C723 0.023       .   A
N721       N722 0.018       .   A
C723       C727 0.022       .   A
C723       N730 0.020       .   A
C723       H736 0.014       .   A
C727       C728 0.023       .   A
C727       H733 0.014       .   A
C727       H735 0.014       .   A
C728       N729 0.020       .   A
C728       H734 0.014       .   A
N729       N730 0.020       .   A
N729       H732 0.013       .   A
N730       H731 0.013       .   A
C645       C646 0.018       .   A
C645       C650 0.018       .   A
C646       C647 0.018       .   A
C646       H653 0.014       .   A
C647       C648 0.018       .   A
C647       H652 0.014       .   A
C648       C649 0.018       .   A
C648       C651 0.023       .   A
C649       C650 0.018       .   A
C649       H655 0.014       .   A
C650       C654 0.020       .   A
C651       C656 0.022       .   A
C651       N659 0.020       .   A
C651       H666 0.014       .   A
C654       C667 0.020       .   A
C654       H671 0.014       .   A
C654       H672 0.014       .   A
C656       C657 0.022       .   A
C656       H663 0.014       .   A
C656       H665 0.014       .   A
C657       N658 0.020       .   A
C657       C660 0.024       .   A
C657       H664 0.014       .   A
N658       N659 0.020       .   A
N658       H662 0.013       .   A
N659       H661 0.013       .   A
C660       C673 0.023       .   A
C660       N676 0.015       .   A
C660       H680 0.014       .   A
C667       H668 0.014       .   A
C667       H669 0.014       .   A
C667       H670 0.014       .   A
C673       N674 0.023       .   A
C673       H678 0.014       .   A
C673       H679 0.014       .   A
N674       N675 0.014       .   A
N674       C677 0.023       .   A
N675       N676 0.018       .   A
C677       C681 0.022       .   A
C677       N684 0.020       .   A
C677       H690 0.014       .   A
C681       C682 0.023       .   A
C681       H687 0.014       .   A
C681       H689 0.014       .   A
C682       N683 0.020       .   A
C682       H688 0.014       .   A
N683       N684 0.020       .   A
N683       H686 0.013       .   A
N684       H685 0.013       .   A
C599       C600 0.018       .   A
C599       C604 0.018       .   A
C600       C601 0.018       .   A
C600       H607 0.014       .   A
C601       C602 0.018       .   A
C601       H606 0.014       .   A
C602       C603 0.018       .   A
C602       C605 0.023       .   A
C603       C604 0.018       .   A
C603       H609 0.014       .   A
C604       C608 0.020       .   A
C605       C610 0.022       .   A
C605       N613 0.020       .   A
C605       H620 0.014       .   A
C608       C621 0.020       .   A
C608       H625 0.014       .   A
C608       H626 0.014       .   A
C610       C611 0.022       .   A
C610       H617 0.014       .   A
C610       H619 0.014       .   A
C611       N612 0.020       .   A
C611       C614 0.024       .   A
C611       H618 0.014       .   A
N612       N613 0.020       .   A
N612       H616 0.013       .   A
N613       H615 0.013       .   A
C614       C627 0.023       .   A
C614       N630 0.015       .   A
C614       H634 0.014       .   A
C621       H622 0.014       .   A
C621       H623 0.014       .   A
C621       H624 0.014       .   A
C627       N628 0.023       .   A
C627       H632 0.014       .   A
C627       H633 0.014       .   A
N628       N629 0.014       .   A
N628       C631 0.023       .   A
N629       N630 0.018       .   A
C631       C635 0.022       .   A
C631       N638 0.020       .   A
C631       H644 0.014       .   A
C635       C636 0.023       .   A
C635       H641 0.014       .   A
C635       H643 0.014       .   A
C636       N637 0.020       .   A
C636       H642 0.014       .   A
N637       N638 0.020       .   A
N637       H640 0.013       .   A
N638       H639 0.013       .   A
C553       C554 0.018       .   A
C553       C558 0.018       .   A
C554       C555 0.018       .   A
C554       H561 0.014       .   A
C555       C556 0.018       .   A
C555       H560 0.014       .   A
C556       C557 0.018       .   A
C556       C559 0.023       .   A
C557       C558 0.018       .   A
C557       H563 0.014       .   A
C558       C562 0.020       .   A
C559       C564 0.022       .   A
C559       N567 0.020       .   A
C559       H574 0.014       .   A
C562       C575 0.020       .   A
C562       H579 0.014       .   A
C562       H580 0.014       .   A
C564       C565 0.022       .   A
C564       H571 0.014       .   A
C564       H573 0.014       .   A
C565       N566 0.020       .   A
C565       C568 0.024       .   A
C565       H572 0.014       .   A
N566       N567 0.020       .   A
N566       H570 0.013       .   A
N567       H569 0.013       .   A
C568       C581 0.023       .   A
C568       N584 0.015       .   A
C568       H588 0.014       .   A
C575       H576 0.014       .   A
C575       H577 0.014       .   A
C575       H578 0.014       .   A
C581       N582 0.023       .   A
C581       H586 0.014       .   A
C581       H587 0.014       .   A
N582       N583 0.014       .   A
N582       C585 0.023       .   A
N583       N584 0.018       .   A
C585       C589 0.022       .   A
C585       N592 0.020       .   A
C585       H598 0.014       .   A
C589       C590 0.023       .   A
C589       H595 0.014       .   A
C589       H597 0.014       .   A
C590       N591 0.020       .   A
C590       H596 0.014       .   A
N591       N592 0.020       .   A
N591       H594 0.013       .   A
N592       H593 0.013       .   A
C507       C508 0.018       .   A
C507       C512 0.018       .   A
C508       C509 0.018       .   A
C508       H515 0.014       .   A
C509       C510 0.018       .   A
C509       H514 0.014       .   A
C510       C511 0.018       .   A
C510       C513 0.023       .   A
C511       C512 0.018       .   A
C511       H517 0.014       .   A
C512       C516 0.020       .   A
C513       C518 0.022       .   A
C513       N521 0.020       .   A
C513       H528 0.014       .   A
C516       C529 0.020       .   A
C516       H533 0.014       .   A
C516       H534 0.014       .   A
C518       C519 0.022       .   A
C518       H525 0.014       .   A
C518       H527 0.014       .   A
C519       N520 0.020       .   A
C519       C522 0.024       .   A
C519       H526 0.014       .   A
N520       N521 0.020       .   A
N520       H524 0.013       .   A
N521       H523 0.013       .   A
C522       C535 0.023       .   A
C522       N538 0.015       .   A
C522       H542 0.014       .   A
C529       H530 0.014       .   A
C529       H531 0.014       .   A
C529       H532 0.014       .   A
C535       N536 0.023       .   A
C535       H540 0.014       .   A
C535       H541 0.014       .   A
N536       N537 0.014       .   A
N536       C539 0.023       .   A
N537       N538 0.018       .   A
C539       C543 0.022       .   A
C539       N546 0.020       .   A
C539       H552 0.014       .   A
C543       C544 0.023       .   A
C543       H549 0.014       .   A
C543       H551 0.014       .   A
C544       N545 0.020       .   A
C544       H550 0.014       .   A
N545       N546 0.020       .   A
N545       H548 0.013       .   A
N546       H547 0.013       .   A
C461       C462 0.018       .   A
C461       C466 0.018       .   A
C462       C463 0.018       .   A
C462       H469 0.014       .   A
C463       C464 0.018       .   A
C463       H468 0.014       .   A
C464       C465 0.018       .   A
C464       C467 0.023       .   A
C465       C466 0.018       .   A
C465       H471 0.014       .   A
C466       C470 0.020       .   A
C467       C472 0.022       .   A
C467       N475 0.020       .   A
C467       H482 0.014       .   A
C470       C483 0.020       .   A
C470       H487 0.014       .   A
C470       H488 0.014       .   A
C472       C473 0.022       .   A
C472       H479 0.014       .   A
C472       H481 0.014       .   A
C473       N474 0.020       .   A
C473       C476 0.024       .   A
C473       H480 0.014       .   A
N474       N475 0.020       .   A
N474       H478 0.013       .   A
N475       H477 0.013       .   A
C476       C489 0.023       .   A
C476       N492 0.015       .   A
C476       H496 0.014       .   A
C483       H484 0.014       .   A
C483       H485 0.014       .   A
C483       H486 0.014       .   A
C489       N490 0.023       .   A
C489       H494 0.014       .   A
C489       H495 0.014       .   A
N490       N491 0.014       .   A
N490       C493 0.023       .   A
N491       N492 0.018       .   A
C493       C497 0.022       .   A
C493       N500 0.020       .   A
C493       H506 0.014       .   A
C497       C498 0.023       .   A
C497       H503 0.014       .   A
C497       H505 0.014       .   A
C498       N499 0.020       .   A
C498       H504 0.014       .   A
N499       N500 0.020       .   A
N499       H502 0.013       .   A
N500       H501 0.013       .   A
C415       C416 0.018       .   A
C415       C420 0.018       .   A
C416       C417 0.018       .   A
C416       H423 0.014       .   A
C417       C418 0.018       .   A
C417       H422 0.014       .   A
C418       C419 0.018       .   A
C418       C421 0.023       .   A
C419       C420 0.018       .   A
C419       H425 0.014       .   A
C420       C424 0.020       .   A
C421       C426 0.022       .   A
C421       N429 0.020       .   A
C421       H436 0.014       .   A
C424       C437 0.020       .   A
C424       H441 0.014       .   A
C424       H442 0.014       .   A
C426       C427 0.022       .   A
C426       H433 0.014       .   A
C426       H435 0.014       .   A
C427       N428 0.020       .   A
C427       C430 0.024       .   A
C427       H434 0.014       .   A
N428       N429 0.020       .   A
N428       H432 0.013       .   A
N429       H431 0.013       .   A
C430       C443 0.023       .   A
C430       N446 0.015       .   A
C430       H450 0.014       .   A
C437       H438 0.014       .   A
C437       H439 0.014       .   A
C437       H440 0.014       .   A
C443       N444 0.023       .   A
C443       H448 0.014       .   A
C443       H449 0.014       .   A
N444       N445 0.014       .   A
N444       C447 0.023       .   A
N445       N446 0.018       .   A
C447       C451 0.022       .   A
C447       N454 0.020       .   A
C447       H460 0.014       .   A
C451       C452 0.023       .   A
C451       H457 0.014       .   A
C451       H459 0.014       .   A
C452       N453 0.020       .   A
C452       H458 0.014       .   A
N453       N454 0.020       .   A
N453       H456 0.013       .   A
N454       H455 0.013       .   A
C369       C370 0.018       .   A
C369       C374 0.018       .   A
C370       C371 0.018       .   A
C370       H377 0.014       .   A
C371       C372 0.018       .   A
C371       H376 0.014       .   A
C372       C373 0.018       .   A
C372       C375 0.023       .   A
C373       C374 0.018       .   A
C373       H379 0.014       .   A
C374       C378 0.020       .   A
C375       C380 0.022       .   A
C375       N383 0.020       .   A
C375       H390 0.014       .   A
C378       C391 0.020       .   A
C378       H395 0.014       .   A
C378       H396 0.014       .   A
C380       C381 0.022       .   A
C380       H387 0.014       .   A
C380       H389 0.014       .   A
C381       N382 0.020       .   A
C381       C384 0.024       .   A
C381       H388 0.014       .   A
N382       N383 0.020       .   A
N382       H386 0.013       .   A
N383       H385 0.013       .   A
C384       C397 0.023       .   A
C384       N400 0.015       .   A
C384       H404 0.014       .   A
C391       H392 0.014       .   A
C391       H393 0.014       .   A
C391       H394 0.014       .   A
C397       N398 0.023       .   A
C397       H402 0.014       .   A
C397       H403 0.014       .   A
N398       N399 0.014       .   A
N398       C401 0.023       .   A
N399       N400 0.018       .   A
C401       C405 0.022       .   A
C401       N408 0.020       .   A
C401       H414 0.014       .   A
C405       C406 0.023       .   A
C405       H411 0.014       .   A
C405       H413 0.014       .   A
C406       N407 0.020       .   A
C406       H412 0.014       .   A
N407       N408 0.020       .   A
N407       H410 0.013       .   A
N408       H409 0.013       .   A
C323       C324 0.018       .   A
C323       C328 0.018       .   A
C324       C325 0.018       .   A
C324       H331 0.014       .   A
C325       C326 0.018       .   A
C325       H330 0.014       .   A
C326       C327 0.018       .   A
C326       C329 0.023       .   A
C327       C328 0.018       .   A
C327       H333 0.014       .   A
C328       C332 0.020       .   A
C329       C334 0.022       .   A
C329       N337 0.020       .   A
C329       H344 0.014       .   A
C332       C345 0.020       .   A
C332       H349 0.014       .   A
C332       H350 0.014       .   A
C334       C335 0.022       .   A
C334       H341 0.014       .   A
C334       H343 0.014       .   A
C335       N336 0.020       .   A
C335       C338 0.024       .   A
C335       H342 0.014       .   A
N336       N337 0.020       .   A
N336       H340 0.013       .   A
N337       H339 0.013       .   A
C338       C351 0.023       .   A
C338       N354 0.015       .   A
C338       H358 0.014       .   A
C345       H346 0.014       .   A
C345       H347 0.014       .   A
C345       H348 0.014       .   A
C351       N352 0.023       .   A
C351       H356 0.014       .   A
C351       H357 0.014       .   A
N352       N353 0.014       .   A
N352       C355 0.023       .   A
N353       N354 0.018       .   A
C355       C359 0.022       .   A
C355       N362 0.020       .   A
C355       H368 0.014       .   A
C359       C360 0.023       .   A
C359       H365 0.014       .   A
C359       H367 0.014       .   A
C360       N361 0.020       .   A
C360       H366 0.014       .   A
N361       N362 0.020       .   A
N361       H364 0.013       .   A
N362       H363 0.013       .   A
C277       C278 0.018       .   A
C277       C282 0.018       .   A
C278       C279 0.018       .   A
C278       H285 0.014       .   A
C279       C280 0.018       .   A
C279       H284 0.014       .   A
C280       C281 0.018       .   A
C280       C283 0.023       .   A
C281       C282 0.018       .   A
C281       H287 0.014       .   A
C282       C286 0.020       .   A
C283       C288 0.022       .   A
C283       N291 0.020       .   A
C283       H298 0.014       .   A
C286       C299 0.020       .   A
C286       H303 0.014       .   A
C286       H304 0.014       .   A
C288       C289 0.022       .   A
C288       H295 0.014       .   A
C288       H297 0.014       .   A
C289       N290 0.020       .   A
C289       C292 0.024       .   A
C289       H296 0.014       .   A
N290       N291 0.020       .   A
N290       H294 0.013       .   A
N291       H293 0.013       .   A
C292       C305 0.023       .   A
C292       N308 0.015       .   A
C292       H312 0.014       .   A
C299       H300 0.014       .   A
C299       H301 0.014       .   A
C299       H302 0.014       .   A
C305       N306 0.023       .   A
C305       H310 0.014       .   A
C305       H311 0.014       .   A
N306       N307 0.014       .   A
N306       C309 0.023       .   A
N307       N308 0.018       .   A
C309       C313 0.022       .   A
C309       N316 0.020       .   A
C309       H322 0.014       .   A
C313       C314 0.023       .   A
C313       H319 0.014       .   A
C313       H321 0.014       .   A
C314       N315 0.020       .   A
C314       H320 0.014       .   A
N315       N316 0.020       .   A
N315       H318 0.013       .   A
N316       H317 0.013       .   A
C231       C232 0.018       .   A
C231       C236 0.018       .   A
C232       C233 0.018       .   A
C232       H239 0.014       .   A
C233       C234 0.018       .   A
C233       H238 0.014       .   A
C234       C235 0.018       .   A
C234       C237 0.023       .   A
C235       C236 0.018       .   A
C235       H241 0.014       .   A
C236       C240 0.020       .   A
C237       C242 0.022       .   A
C237       N245 0.020       .   A
C237       H252 0.014       .   A
C240       C253 0.020       .   A
C240       H257 0.014       .   A
C240       H258 0.014       .   A
C242       C243 0.022       .   A
C242       H249 0.014       .   A
C242       H251 0.014       .   A
C243       N244 0.020       .   A
C243       C246 0.024       .   A
C243       H250 0.014       .   A
N244       N245 0.020       .   A
N244       H248 0.013       .   A
N245       H247 0.013       .   A
C246       C259 0.023       .   A
C246       N262 0.015       .   A
C246       H266 0.014       .   A
C253       H254 0.014       .   A
C253       H255 0.014       .   A
C253       H256 0.014       .   A
C259       N260 0.023       .   A
C259       H264 0.014       .   A
C259       H265 0.014       .   A
N260       N261 0.014       .   A
N260       C263 0.023       .   A
N261       N262 0.018       .   A
C263       C267 0.022       .   A
C263       N270 0.020       .   A
C263       H276 0.014       .   A
C267       C268 0.023       .   A
C267       H273 0.014       .   A
C267       H275 0.014       .   A
C268       N269 0.020       .   A
C268       H274 0.014       .   A
N269       N270 0.020       .   A
N269       H272 0.013       .   A
N270       H271 0.013       .   A
C185       C186 0.018       .   A
C185       C190 0.018       .   A
C186       C187 0.018       .   A
C186       H193 0.014       .   A
C187       C188 0.018       .   A
C187       H192 0.014       .   A
C188       C189 0.018       .   A
C188       C191 0.023       .   A
C189       C190 0.018       .   A
C189       H195 0.014       .   A
C190       C194 0.020       .   A
C191       C196 0.022       .   A
C191       N199 0.020       .   A
C191       H206 0.014       .   A
C194       C207 0.020       .   A
C194       H211 0.014       .   A
C194       H212 0.014       .   A
C196       C197 0.022       .   A
C196       H203 0.014       .   A
C196       H205 0.014       .   A
C197       N198 0.020       .   A
C197       C200 0.024       .   A
C197       H204 0.014       .   A
N198       N199 0.020       .   A
N198       H202 0.013       .   A
N199       H201 0.013       .   A
C200       C213 0.023       .   A
C200       N216 0.015       .   A
C200       H220 0.014       .   A
C207       H208 0.014       .   A
C207       H209 0.014       .   A
C207       H210 0.014       .   A
C213       N214 0.023       .   A
C213       H218 0.014       .   A
C213       H219 0.014       .   A
N214       N215 0.014       .   A
N214       C217 0.023       .   A
N215       N216 0.018       .   A
C217       C221 0.022       .   A
C217       N224 0.020       .   A
C217       H230 0.014       .   A
C221       C222 0.023       .   A
C221       H227 0.014       .   A
C221       H229 0.014       .   A
C222       N223 0.020       .   A
C222       H228 0.014       .   A
N223       N224 0.020       .   A
N223       H226 0.013       .   A
N224       H225 0.013       .   A
