data_pcu_v1-6c_Zn_1_Ch_1-60_fer_tobacco
_audit_creation_date              2021-04-07
_audit_creation_method            'tobacco_3.0'
_symmetry_space_group_name_H-M    'P1'
_symmetry_Int_Tables_number       1
_symmetry_cell_setting            triclinic
loop_
_symmetry_equiv_pos_as_xyz
  x,y,z
_cell_length_a                    34.24629026910972
_cell_length_b                    34.24629026910972
_cell_length_c                    34.24629026910972
_cell_angle_alpha                 90.0
_cell_angle_beta                  90.0
_cell_angle_gamma                 90.0
loop_
_atom_site_label
_atom_site_type_symbol
_atom_site_fract_x
_atom_site_fract_y
_atom_site_fract_z
_atom_site_charge
Zn1       Zn    0.0327393125   -0.0327393125    0.0327393125          1.4972
Zn2       Zn    0.0327393125    0.0327393125   -0.0327393125          1.4936
Zn3       Zn   -0.0327393125   -0.0327393125   -0.0327393125          1.4911
Zn4       Zn   -0.0327393125    0.0327393125    0.0327393125          1.4948
O5         O    0.0000000000    0.0000000000    0.0000000000          -2.205
O6         O    0.0875014484   -0.0240610003    0.0240610003         -1.1113
O7         O    0.0240610003    0.0240610003   -0.0875014484         -1.1095
O8         O   -0.0240610003   -0.0875014484   -0.0240610003         -1.1046
O9         O    0.0875014484    0.0240610003   -0.0240610003         -1.1114
O10        O    0.0240610003   -0.0875014484    0.0240610003         -1.1074
O11        O   -0.0240610003   -0.0240610003   -0.0875014484         -1.1133
O12        O   -0.0875014484    0.0240610003    0.0240610003         -1.1072
O13        O    0.0240610003    0.0875014484   -0.0240610003         -1.1147
O14        O   -0.0875014484   -0.0240610003   -0.0240610003         -1.1086
O15        O   -0.0240610003    0.0875014484    0.0240610003         -1.1133
O16        O   -0.0240610003    0.0240610003    0.0875014484         -1.1124
O17        O    0.0240610003   -0.0240610003    0.0875014484         -1.1103
C18        C    0.1046186309   -0.0000000000    0.0000000000          0.4076
C19        C   -0.0000000000   -0.0000000000   -0.1046186309          0.4125
C20        C    0.0000000000   -0.1046186309   -0.0000000000          0.4021
C21        C   -0.1046186309    0.0000000000   -0.0000000000          0.4059
C22        C   -0.0000000000    0.1046186309    0.0000000000          0.4172
C23        C    0.0000000000    0.0000000000    0.1046186309          0.4077
Zn24      Zn    0.9672606875    0.0327393125    0.4672606875          1.4972
Zn25      Zn    1.0327393125   -0.0327393125    0.4672606875          1.4936
Zn26      Zn    1.0327393125    0.0327393125    0.5327393125          1.4911
Zn27      Zn    0.9672606875   -0.0327393125    0.5327393125          1.4948
O28        O    1.0000000000    0.0000000000    0.5000000000          -2.205
O29        O    0.9759389997    0.0240610003    0.4124985516         -1.1113
O30        O    1.0875014484   -0.0240610003    0.4759389997         -1.1095
O31        O    1.0240610003    0.0875014484    0.5240610003         -1.1046
O32        O    1.0240610003   -0.0240610003    0.4124985516         -1.1114
O33        O    0.9759389997    0.0875014484    0.4759389997         -1.1074
O34        O    1.0875014484    0.0240610003    0.5240610003         -1.1133
O35        O    0.9759389997   -0.0240610003    0.5875014484         -1.1072
O36        O    1.0240610003   -0.0875014484    0.4759389997         -1.1147
O37        O    1.0240610003    0.0240610003    0.5875014484         -1.1086
O38        O    0.9759389997   -0.0875014484    0.5240610003         -1.1133
O39        O    0.9124985516   -0.0240610003    0.5240610003         -1.1124
O40        O    0.9124985516    0.0240610003    0.4759389997         -1.1103
C41        C    1.0000000000    0.0000000000    0.3953813691          0.4076
C42        C    1.1046186309    0.0000000000    0.5000000000          0.4125
C43        C    1.0000000000    0.1046186309    0.5000000000          0.4021
C44        C    1.0000000000    0.0000000000    0.6046186309          0.4059
C45        C    1.0000000000   -0.1046186309    0.5000000000          0.4172
C46        C    0.8953813691    0.0000000000    0.5000000000          0.4077
Zn47      Zn    1.0327393125    0.4672606875   -0.0327393125          1.4972
Zn48      Zn    0.9672606875    0.4672606875    0.0327393125          1.4936
Zn49      Zn    1.0327393125    0.5327393125    0.0327393125          1.4911
Zn50      Zn    0.9672606875    0.5327393125   -0.0327393125          1.4948
O51        O    1.0000000000    0.5000000000    0.0000000000          -2.205
O52        O    1.0240610003    0.4124985516   -0.0240610003         -1.1113
O53        O    0.9759389997    0.4759389997    0.0875014484         -1.1095
O54        O    1.0875014484    0.5240610003    0.0240610003         -1.1046
O55        O    0.9759389997    0.4124985516    0.0240610003         -1.1114
O56        O    1.0875014484    0.4759389997   -0.0240610003         -1.1074
O57        O    1.0240610003    0.5240610003    0.0875014484         -1.1133
O58        O    0.9759389997    0.5875014484   -0.0240610003         -1.1072
O59        O    0.9124985516    0.4759389997    0.0240610003         -1.1147
O60        O    1.0240610003    0.5875014484    0.0240610003         -1.1086
O61        O    0.9124985516    0.5240610003   -0.0240610003         -1.1133
O62        O    0.9759389997    0.5240610003   -0.0875014484         -1.1124
O63        O    1.0240610003    0.4759389997   -0.0875014484         -1.1103
C64        C    1.0000000000    0.3953813691    0.0000000000          0.4076
C65        C    1.0000000000    0.5000000000    0.1046186309          0.4125
C66        C    1.1046186309    0.5000000000    0.0000000000          0.4021
C67        C    1.0000000000    0.6046186309    0.0000000000          0.4059
C68        C    0.8953813691    0.5000000000    0.0000000000          0.4172
C69        C    1.0000000000    0.5000000000   -0.1046186309          0.4077
Zn70      Zn    0.9672606875    0.4672606875    0.5327393125          1.4972
Zn71      Zn    1.0327393125    0.4672606875    0.4672606875          1.4936
Zn72      Zn    0.9672606875    0.5327393125    0.4672606875          1.4911
Zn73      Zn    1.0327393125    0.5327393125    0.5327393125          1.4948
O74        O    1.0000000000    0.5000000000    0.5000000000          -2.205
O75        O    0.9759389997    0.4124985516    0.5240610003         -1.1113
O76        O    1.0240610003    0.4759389997    0.4124985516         -1.1095
O77        O    0.9124985516    0.5240610003    0.4759389997         -1.1046
O78        O    1.0240610003    0.4124985516    0.4759389997         -1.1114
O79        O    0.9124985516    0.4759389997    0.5240610003         -1.1074
O80        O    0.9759389997    0.5240610003    0.4124985516         -1.1133
O81        O    1.0240610003    0.5875014484    0.5240610003         -1.1072
O82        O    1.0875014484    0.4759389997    0.4759389997         -1.1147
O83        O    0.9759389997    0.5875014484    0.4759389997         -1.1086
O84        O    1.0875014484    0.5240610003    0.5240610003         -1.1133
O85        O    1.0240610003    0.5240610003    0.5875014484         -1.1124
O86        O    0.9759389997    0.4759389997    0.5875014484         -1.1103
C87        C    1.0000000000    0.3953813691    0.5000000000          0.4076
C88        C    1.0000000000    0.5000000000    0.3953813691          0.4125
C89        C    0.8953813691    0.5000000000    0.5000000000          0.4021
C90        C    1.0000000000    0.6046186309    0.5000000000          0.4059
C91        C    1.1046186309    0.5000000000    0.5000000000          0.4172
C92        C    1.0000000000    0.5000000000    0.6046186309          0.4077
Zn93      Zn    0.4672606875    0.9672606875   -0.0327393125          1.4972
Zn94      Zn    0.4672606875    1.0327393125    0.0327393125          1.4936
Zn95      Zn    0.5327393125    0.9672606875    0.0327393125          1.4911
Zn96      Zn    0.5327393125    1.0327393125   -0.0327393125          1.4948
O97        O    0.5000000000    1.0000000000    0.0000000000          -2.205
O98        O    0.4124985516    0.9759389997   -0.0240610003         -1.1113
O99        O    0.4759389997    1.0240610003    0.0875014484         -1.1095
O100       O    0.5240610003    0.9124985516    0.0240610003         -1.1046
O101       O    0.4124985516    1.0240610003    0.0240610003         -1.1114
O102       O    0.4759389997    0.9124985516   -0.0240610003         -1.1074
O103       O    0.5240610003    0.9759389997    0.0875014484         -1.1133
O104       O    0.5875014484    1.0240610003   -0.0240610003         -1.1072
O105       O    0.4759389997    1.0875014484    0.0240610003         -1.1147
O106       O    0.5875014484    0.9759389997    0.0240610003         -1.1086
O107       O    0.5240610003    1.0875014484   -0.0240610003         -1.1133
O108       O    0.5240610003    1.0240610003   -0.0875014484         -1.1124
O109       O    0.4759389997    0.9759389997   -0.0875014484         -1.1103
C110       C    0.3953813691    1.0000000000    0.0000000000          0.4076
C111       C    0.5000000000    1.0000000000    0.1046186309          0.4125
C112       C    0.5000000000    0.8953813691    0.0000000000          0.4021
C113       C    0.6046186309    1.0000000000    0.0000000000          0.4059
C114       C    0.5000000000    1.1046186309    0.0000000000          0.4172
C115       C    0.5000000000    1.0000000000   -0.1046186309          0.4077
Zn116     Zn    0.4672606875    1.0327393125    0.5327393125          1.4972
Zn117     Zn    0.4672606875    0.9672606875    0.4672606875          1.4936
Zn118     Zn    0.5327393125    1.0327393125    0.4672606875          1.4911
Zn119     Zn    0.5327393125    0.9672606875    0.5327393125          1.4948
O120       O    0.5000000000    1.0000000000    0.5000000000          -2.205
O121       O    0.4124985516    1.0240610003    0.5240610003         -1.1113
O122       O    0.4759389997    0.9759389997    0.4124985516         -1.1095
O123       O    0.5240610003    1.0875014484    0.4759389997         -1.1046
O124       O    0.4124985516    0.9759389997    0.4759389997         -1.1114
O125       O    0.4759389997    1.0875014484    0.5240610003         -1.1074
O126       O    0.5240610003    1.0240610003    0.4124985516         -1.1133
O127       O    0.5875014484    0.9759389997    0.5240610003         -1.1072
O128       O    0.4759389997    0.9124985516    0.4759389997         -1.1147
O129       O    0.5875014484    1.0240610003    0.4759389997         -1.1086
O130       O    0.5240610003    0.9124985516    0.5240610003         -1.1133
O131       O    0.5240610003    0.9759389997    0.5875014484         -1.1124
O132       O    0.4759389997    1.0240610003    0.5875014484         -1.1103
C133       C    0.3953813691    1.0000000000    0.5000000000          0.4076
C134       C    0.5000000000    1.0000000000    0.3953813691          0.4125
C135       C    0.5000000000    1.1046186309    0.5000000000          0.4021
C136       C    0.6046186309    1.0000000000    0.5000000000          0.4059
C137       C    0.5000000000    0.8953813691    0.5000000000          0.4172
C138       C    0.5000000000    1.0000000000    0.6046186309          0.4077
Zn139     Zn    0.4672606875    0.5327393125   -0.0327393125          1.4972
Zn140     Zn    0.4672606875    0.4672606875    0.0327393125          1.4936
Zn141     Zn    0.5327393125    0.4672606875   -0.0327393125          1.4911
Zn142     Zn    0.5327393125    0.5327393125    0.0327393125          1.4948
O143       O    0.5000000000    0.5000000000    0.0000000000          -2.205
O144       O    0.4124985516    0.5240610003   -0.0240610003         -1.1113
O145       O    0.4759389997    0.4124985516    0.0240610003         -1.1095
O146       O    0.5240610003    0.4759389997   -0.0875014484         -1.1046
O147       O    0.4124985516    0.4759389997    0.0240610003         -1.1114
O148       O    0.4759389997    0.5240610003   -0.0875014484         -1.1074
O149       O    0.5240610003    0.4124985516   -0.0240610003         -1.1133
O150       O    0.5875014484    0.5240610003    0.0240610003         -1.1072
O151       O    0.4759389997    0.4759389997    0.0875014484         -1.1147
O152       O    0.5875014484    0.4759389997   -0.0240610003         -1.1086
O153       O    0.5240610003    0.5240610003    0.0875014484         -1.1133
O154       O    0.5240610003    0.5875014484    0.0240610003         -1.1124
O155       O    0.4759389997    0.5875014484   -0.0240610003         -1.1103
C156       C    0.3953813691    0.5000000000    0.0000000000          0.4076
C157       C    0.5000000000    0.3953813691    0.0000000000          0.4125
C158       C    0.5000000000    0.5000000000   -0.1046186309          0.4021
C159       C    0.6046186309    0.5000000000    0.0000000000          0.4059
C160       C    0.5000000000    0.5000000000    0.1046186309          0.4172
C161       C    0.5000000000    0.6046186309    0.0000000000          0.4077
Zn162     Zn    0.4672606875    0.4672606875    0.4672606875          1.4972
Zn163     Zn    0.4672606875    0.5327393125    0.5327393125          1.4936
Zn164     Zn    0.5327393125    0.4672606875    0.5327393125          1.4911
Zn165     Zn    0.5327393125    0.5327393125    0.4672606875          1.4948
O166       O    0.5000000000    0.5000000000    0.5000000000          -2.205
O167       O    0.4124985516    0.4759389997    0.4759389997         -1.1113
O168       O    0.4759389997    0.5240610003    0.5875014484         -1.1095
O169       O    0.5240610003    0.4124985516    0.5240610003         -1.1046
O170       O    0.4124985516    0.5240610003    0.5240610003         -1.1114
O171       O    0.4759389997    0.4124985516    0.4759389997         -1.1074
O172       O    0.5240610003    0.4759389997    0.5875014484         -1.1133
O173       O    0.5875014484    0.5240610003    0.4759389997         -1.1072
O174       O    0.4759389997    0.5875014484    0.5240610003         -1.1147
O175       O    0.5875014484    0.4759389997    0.5240610003         -1.1086
O176       O    0.5240610003    0.5875014484    0.4759389997         -1.1133
O177       O    0.5240610003    0.5240610003    0.4124985516         -1.1124
O178       O    0.4759389997    0.4759389997    0.4124985516         -1.1103
C179       C    0.3953813691    0.5000000000    0.5000000000          0.4076
C180       C    0.5000000000    0.5000000000    0.6046186309          0.4125
C181       C    0.5000000000    0.3953813691    0.5000000000          0.4021
C182       C    0.6046186309    0.5000000000    0.5000000000          0.4059
C183       C    0.5000000000    0.6046186309    0.5000000000          0.4172
C184       C    0.5000000000    0.5000000000    0.3953813691          0.4077
C852       C    0.5000000000    0.5000000000   -0.1495870052         -0.3542
C853       C    0.5304794917    0.5150078638   -0.1696467951          0.6318
C854       C    0.5304108626    0.5158086116   -0.2093154136           0.631
C855       C    0.4997515198    0.5005776850   -0.2299686247         -0.3549
C856       C    0.4705228254    0.4854553217   -0.2086891216         -0.3407
C857       C    0.4701913936    0.4856167469   -0.1698234348         -0.3408
C858       C    0.4975211532    0.4996259599   -0.2699361003          -0.354
C859       C    0.5633753814    0.5396956789   -0.2286321240          0.6088
Cl860     Cl    0.5696646478    0.5354756732   -0.1444491450          0.6128
H861       H    0.4454866061    0.4724691826   -0.1548619672         -0.3286
H862       H    0.4462023733    0.4707354802   -0.2224062787         -0.3271
H863       H    0.5553869238    0.5513783027   -0.2571399221          0.5978
H864       H    0.5899609052    0.5222635939   -0.2316188784           0.625
H865       H    0.5707215410    0.5660085368   -0.2123065732          0.5843
C866       C    0.5305165531    0.4932000406   -0.2905827118         -0.3481
C867       C    0.5320286718    0.4935654320   -0.3294291151         -0.3485
C868       C    0.5000000000    0.5000000000   -0.3504129948         -0.3545
C869       C    0.4664795856    0.5043500515   -0.3308417326         -0.3586
C870       C    0.4641165722    0.5040734328   -0.2915294751         -0.3582
H871       H    0.5599811636    0.4886975766   -0.3436664801          -0.344
H872       H    0.5577275940    0.4862849003   -0.2759408812         -0.3416
C873       C    0.4228012921    0.5139327776   -0.2763274730          0.6326
H874       H    0.4400672304    0.5093927642   -0.3476775560         -0.3633
C875       C    0.4201448444    0.5483557724   -0.2472343942          0.6006
H876       H    0.4460113403    0.5669303230   -0.2487514398          0.5833
H877       H    0.3946153997    0.5662653234   -0.2538438538          0.5839
H878       H    0.4165672028    0.5379278908   -0.2173142471          0.6104
H879       H    0.4078921773    0.4881365227   -0.2650245716         -0.3434
H880       H    0.4041999920    0.5227582262   -0.3006853482          0.6244
C823       C    0.5000000000    0.5000000000    0.1495870052         -0.3542
C824       C    0.5304794917    0.4849921362    0.1696467951          0.6318
C825       C    0.5304108626    0.4841913884    0.2093154136           0.631
C826       C    0.4997515198    0.4994223150    0.2299686247         -0.3549
C827       C    0.4705228254    0.5145446783    0.2086891216         -0.3407
C828       C    0.4701913936    0.5143832531    0.1698234348         -0.3408
C829       C    0.4975211532    0.5003740401    0.2699361003          -0.354
C830       C    0.5633753814    0.4603043211    0.2286321240          0.6088
Cl831     Cl    0.5696646478    0.4645243268    0.1444491450          0.6128
H832       H    0.4454866061    0.5275308174    0.1548619672         -0.3286
H833       H    0.4462023733    0.5292645198    0.2224062787         -0.3271
H834       H    0.5553869238    0.4486216973    0.2571399221          0.5978
H835       H    0.5899609052    0.4777364061    0.2316188784           0.625
H836       H    0.5707215410    0.4339914632    0.2123065732          0.5843
C837       C    0.5305165531    0.5067999594    0.2905827118         -0.3481
C838       C    0.5320286718    0.5064345680    0.3294291151         -0.3485
C839       C    0.5000000000    0.5000000000    0.3504129948         -0.3545
C840       C    0.4664795856    0.4956499485    0.3308417326         -0.3586
C841       C    0.4641165722    0.4959265672    0.2915294751         -0.3582
H842       H    0.5599811636    0.5113024234    0.3436664801          -0.344
H843       H    0.5577275940    0.5137150997    0.2759408812         -0.3416
C844       C    0.4228012921    0.4860672224    0.2763274730          0.6326
H845       H    0.4400672304    0.4906072358    0.3476775560         -0.3633
C846       C    0.4201448444    0.4516442276    0.2472343942          0.6006
H847       H    0.4460113403    0.4330696770    0.2487514398          0.5833
H848       H    0.3946153997    0.4337346766    0.2538438538          0.5839
H849       H    0.4165672028    0.4620721092    0.2173142471          0.6104
H850       H    0.4078921773    0.5118634773    0.2650245716         -0.3434
H851       H    0.4041999920    0.4772417738    0.3006853482          0.6244
C794       C    0.5000000000    0.8504129948    0.5000000000         -0.3542
C795       C    0.5156698186    0.8303532049    0.5301445214          0.6318
C796       C    0.5164688769    0.7906845864    0.5300584241           0.631
C797       C    0.5005721216    0.7700313753    0.4997389651         -0.3549
C798       C    0.4848151425    0.7913108784    0.4708474427         -0.3407
C799       C    0.4849692923    0.8301765652    0.4705125653         -0.3408
C800       C    0.4995719224    0.7300638997    0.4975299116          -0.354
C801       C    0.5410700437    0.7713678760    0.5624934989          0.6088
Cl802     Cl    0.5369883730    0.8555508550    0.5688734114          0.6128
H803       H    0.4712854228    0.8451380328    0.4461007506         -0.3286
H804       H    0.4695677629    0.7775937213    0.4468542034         -0.3271
H805       H    0.5525754506    0.7428600779    0.5542518507          0.5978
H806       H    0.5242226214    0.7683811216    0.5894533213           0.625
H807       H    0.5675370346    0.7876934268    0.5692633543          0.5843
C808       C    0.4938680041    0.7094172882    0.5306577574         -0.3481
C809       C    0.4942663261    0.6705708849    0.5321615370         -0.3485
C810       C    0.5000000000    0.6495870052    0.5000000000         -0.3545
C811       C    0.5036170815    0.6691582674    0.4663925923         -0.3586
C812       C    0.5032889313    0.7084705249    0.4640361824         -0.3582
H813       H    0.4900099862    0.6563335199    0.5602136561          -0.344
H814       H    0.4875486774    0.7240591188    0.5580133056         -0.3416
C815       C    0.5122437882    0.7236725270    0.4225154697          0.6326
H816       H    0.5080818666    0.6523224440    0.4398764246         -0.3633
C817       C    0.5466005712    0.7527656058    0.4191080142          0.6006
H818       H    0.5657354994    0.7512485602    0.4445627595          0.5833
H819       H    0.5639484056    0.7461561462    0.3931935934          0.5839
H820       H    0.5360970565    0.7826857529    0.4157589229          0.6104
H821       H    0.4861281367    0.7349754284    0.4081731820         -0.3434
H822       H    0.5206609652    0.6993146518    0.4037258970          0.6244
C765       C    0.5000000000    1.1495870052    0.5000000000         -0.3542
C766       C    0.4695205083    1.1696467951    0.4849921362          0.6318
C767       C    0.4695891374    1.2093154136    0.4841913884           0.631
C768       C    0.5002484802    1.2299686247    0.4994223150         -0.3549
C769       C    0.5294771746    1.2086891216    0.5145446783         -0.3407
C770       C    0.5298086064    1.1698234348    0.5143832531         -0.3408
C771       C    0.5024788468    1.2699361003    0.5003740401          -0.354
C772       C    0.4366246186    1.2286321240    0.4603043211          0.6088
Cl773     Cl    0.4303353522    1.1444491450    0.4645243268          0.6128
H774       H    0.5545133939    1.1548619672    0.5275308174         -0.3286
H775       H    0.5537976267    1.2224062787    0.5292645198         -0.3271
H776       H    0.4446130762    1.2571399221    0.4486216973          0.5978
H777       H    0.4100390948    1.2316188784    0.4777364061           0.625
H778       H    0.4292784590    1.2123065732    0.4339914632          0.5843
C779       C    0.4694834469    1.2905827118    0.5067999594         -0.3481
C780       C    0.4679713282    1.3294291151    0.5064345680         -0.3485
C781       C    0.5000000000    1.3504129948    0.5000000000         -0.3545
C782       C    0.5335204144    1.3308417326    0.4956499485         -0.3586
C783       C    0.5358834278    1.2915294751    0.4959265672         -0.3582
H784       H    0.4400188364    1.3436664801    0.5113024234          -0.344
H785       H    0.4422724060    1.2759408812    0.5137150997         -0.3416
C786       C    0.5771987079    1.2763274730    0.4860672224          0.6326
H787       H    0.5599327696    1.3476775560    0.4906072358         -0.3633
C788       C    0.5798551556    1.2472343942    0.4516442276          0.6006
H789       H    0.5539886597    1.2487514398    0.4330696770          0.5833
H790       H    0.6053846003    1.2538438538    0.4337346766          0.5839
H791       H    0.5834327972    1.2173142471    0.4620721092          0.6104
H792       H    0.5921078227    1.2650245716    0.5118634773         -0.3434
H793       H    0.5958000080    1.3006853482    0.4772417738          0.6244
C736       C    0.5000000000    0.8504129948    0.0000000000         -0.3542
C737       C    0.4873961162    0.8303532049   -0.0315496038          0.6318
C738       C    0.4865924587    0.7906845864   -0.0315431546           0.631
C739       C    0.4994048166    0.7700313753    0.0002030249         -0.3549
C740       C    0.5122196621    0.7913108784    0.0305144449         -0.3407
C741       C    0.5120330699    0.8301765652    0.0308323890         -0.3408
C742       C    0.5001810675    0.7300638997    0.0025003603          -0.354
C743       C    0.4653283335    0.7713678760   -0.0662575387          0.6088
Cl744     Cl    0.4700224398    0.8555508550   -0.0722013326          0.6128
H745       H    0.5232291681    0.8451380328    0.0564806318         -0.3286
H746       H    0.5250130671    0.7775937213    0.0559011917         -0.3271
H747       H    0.4530624841    0.7428600779   -0.0591972205          0.5978
H748       H    0.4847657207    0.7683811216   -0.0914141609           0.625
H749       H    0.4396629579    0.7876934268   -0.0756181502          0.5843
C750       C    0.5091413951    0.7094172882   -0.0298987350         -0.3481
C751       C    0.5088941304    0.6705708849   -0.0314345976         -0.3485
C752       C    0.5000000000    0.6495870052    0.0000000000         -0.3545
C753       C    0.4930686800    0.6691582674    0.0330831971         -0.3586
C754       C    0.4931615833    0.7084705249    0.0354605316         -0.3582
H755       H    0.5159107710    0.6563335199   -0.0589264976          -0.344
H756       H    0.5181417953    0.7240591188   -0.0564929582         -0.3416
C757       C    0.4801342107    0.7236725270    0.0758888213          0.6326
H758       H    0.4859969056    0.6523224440    0.0590260471         -0.3633
C759       C    0.4456088716    0.7527656058    0.0758731292          0.6006
H760       H    0.4290919758    0.7512485602    0.0486466404          0.5833
H761       H    0.4257771858    0.7461561462    0.0999398865          0.5839
H762       H    0.4557285827    0.7826857529    0.0802471069          0.6104
H763       H    0.5046991969    0.7349754284    0.0927497205         -0.3434
H764       H    0.4698955842    0.6993146518    0.0937512802          0.6244
C707       C    0.5000000000    1.1495870052    0.0000000000         -0.3542
C708       C    0.4730581769    1.1696467951    0.0206971871          0.6318
C709       C    0.4723703808    1.2093154136    0.0202814426           0.631
C710       C    0.4995918118    1.2299686247   -0.0004783773         -0.3549
C711       C    0.5260830595    1.2086891216   -0.0200031372         -0.3407
C712       C    0.5260848869    1.1698234348   -0.0203717858         -0.3408
C713       C    0.5014319262    1.2699361003   -0.0020577110          -0.354
C714       C    0.4363660203    1.2286321240    0.0392797979          0.6088
Cl715     Cl    0.4373688144    1.1444491450    0.0467869760          0.6128
H716       H    0.5488039730    1.1548619672   -0.0367127804         -0.3286
H717       H    0.5500422434    1.2224062787   -0.0353039748         -0.3271
H718       H    0.4294219608    1.2571399221    0.0269477586          0.5978
H719       H    0.4402404654    1.2316188784    0.0708338204           0.625
H720       H    0.4095178425    1.2123065732    0.0342292633          0.5843
C721       C    0.4926001854    1.2905827118    0.0303766720         -0.3481
C722       C    0.4916036284    1.3294291151    0.0315711961         -0.3485
C723       C    0.5000000000    1.3504129948    0.0000000000         -0.3545
C724       C    0.5109257175    1.3308417326   -0.0319870259         -0.3586
C725       C    0.5122190346    1.2915294751   -0.0339839439         -0.3582
H726       H    0.4836051616    1.3436664801    0.0587936564          -0.344
H727       H    0.4867657972    1.2759408812    0.0578397350         -0.3416
C728       C    0.5216516284    1.2763274730   -0.0753987386          0.6326
H729       H    0.5180861150    1.3476775560   -0.0579055553         -0.3633
C730       C    0.4919543032    1.2472343942   -0.0930074908          0.6006
H731       H    0.4638541526    1.2487514398   -0.0780251320          0.5833
H732       H    0.4871845063    1.2538438538   -0.1238255635          0.5839
H733       H    0.5028890722    1.2173142471   -0.0916035469          0.6104
H734       H    0.5513818086    1.2650245716   -0.0773595685         -0.3434
H735       H    0.5219644084    1.3006853482   -0.0959851194          0.6244
C678       C    0.5000000000    1.0000000000   -0.1495870052         -0.3542
C679       C    0.5150078638    0.9695205083   -0.1696467951          0.6318
C680       C    0.5158086116    0.9695891374   -0.2093154136           0.631
C681       C    0.5005776850    1.0002484802   -0.2299686247         -0.3549
C682       C    0.4854553217    1.0294771746   -0.2086891216         -0.3407
C683       C    0.4856167469    1.0298086064   -0.1698234348         -0.3408
C684       C    0.4996259599    1.0024788468   -0.2699361003          -0.354
C685       C    0.5396956789    0.9366246186   -0.2286321240          0.6088
Cl686     Cl    0.5354756732    0.9303353522   -0.1444491450          0.6128
H687       H    0.4724691826    1.0545133939   -0.1548619672         -0.3286
H688       H    0.4707354802    1.0537976267   -0.2224062787         -0.3271
H689       H    0.5513783027    0.9446130762   -0.2571399221          0.5978
H690       H    0.5222635939    0.9100390948   -0.2316188784           0.625
H691       H    0.5660085368    0.9292784590   -0.2123065732          0.5843
C692       C    0.4932000406    0.9694834469   -0.2905827118         -0.3481
C693       C    0.4935654320    0.9679713282   -0.3294291151         -0.3485
C694       C    0.5000000000    1.0000000000   -0.3504129948         -0.3545
C695       C    0.5043500515    1.0335204144   -0.3308417326         -0.3586
C696       C    0.5040734328    1.0358834278   -0.2915294751         -0.3582
H697       H    0.4886975766    0.9400188364   -0.3436664801          -0.344
H698       H    0.4862849003    0.9422724060   -0.2759408812         -0.3416
C699       C    0.5139327776    1.0771987079   -0.2763274730          0.6326
H700       H    0.5093927642    1.0599327696   -0.3476775560         -0.3633
C701       C    0.5483557724    1.0798551556   -0.2472343942          0.6006
H702       H    0.5669303230    1.0539886597   -0.2487514398          0.5833
H703       H    0.5662653234    1.1053846003   -0.2538438538          0.5839
H704       H    0.5379278908    1.0834327972   -0.2173142471          0.6104
H705       H    0.4881365227    1.0921078227   -0.2650245716         -0.3434
H706       H    0.5227582262    1.0958000080   -0.3006853482          0.6244
C649       C    0.5000000000    1.0000000000    0.1495870052         -0.3542
C650       C    0.5304794917    0.9849921362    0.1696467951          0.6318
C651       C    0.5304108626    0.9841913884    0.2093154136           0.631
C652       C    0.4997515198    0.9994223150    0.2299686247         -0.3549
C653       C    0.4705228254    1.0145446783    0.2086891216         -0.3407
C654       C    0.4701913936    1.0143832531    0.1698234348         -0.3408
C655       C    0.4975211532    1.0003740401    0.2699361003          -0.354
C656       C    0.5633753814    0.9603043211    0.2286321240          0.6088
Cl657     Cl    0.5696646478    0.9645243268    0.1444491450          0.6128
H658       H    0.4454866061    1.0275308174    0.1548619672         -0.3286
H659       H    0.4462023733    1.0292645198    0.2224062787         -0.3271
H660       H    0.5553869238    0.9486216973    0.2571399221          0.5978
H661       H    0.5899609052    0.9777364061    0.2316188784           0.625
H662       H    0.5707215410    0.9339914632    0.2123065732          0.5843
C663       C    0.5305165531    1.0067999594    0.2905827118         -0.3481
C664       C    0.5320286718    1.0064345680    0.3294291151         -0.3485
C665       C    0.5000000000    1.0000000000    0.3504129948         -0.3545
C666       C    0.4664795856    0.9956499485    0.3308417326         -0.3586
C667       C    0.4641165722    0.9959265672    0.2915294751         -0.3582
H668       H    0.5599811636    1.0113024234    0.3436664801          -0.344
H669       H    0.5577275940    1.0137150997    0.2759408812         -0.3416
C670       C    0.4228012921    0.9860672224    0.2763274730          0.6326
H671       H    0.4400672304    0.9906072358    0.3476775560         -0.3633
C672       C    0.4201448444    0.9516442276    0.2472343942          0.6006
H673       H    0.4460113403    0.9330696770    0.2487514398          0.5833
H674       H    0.3946153997    0.9337346766    0.2538438538          0.5839
H675       H    0.4165672028    0.9620721092    0.2173142471          0.6104
H676       H    0.4078921773    1.0118634773    0.2650245716         -0.3434
H677       H    0.4041999920    0.9772417738    0.3006853482          0.6244
C620       C    0.8504129948    0.5000000000    0.5000000000         -0.3542
C621       C    0.8303532049    0.4660270500    0.5002721242          0.6318
C622       C    0.7906845864    0.4657289059    0.4995257884           0.631
C623       C    0.7700313753    0.4999627028    0.4993722490         -0.3549
C624       C    0.7913108784    0.5328693743    0.4997639424         -0.3407
C625       C    0.8301765652    0.5330930665    0.4994709118         -0.3408
C626       C    0.7300638997    0.5023829449    0.4992214365          -0.354
C627       C    0.7713678760    0.4255493780    0.4929792613          0.6088
Cl628     Cl    0.8555508550    0.4218238870    0.4995735041          0.6128
H629       H    0.8451380328    0.5610707739    0.5001288346         -0.3286
H630       H    0.7775937213    0.5612094713    0.5019993451         -0.3271
H631       H    0.7428600779    0.4274431269    0.4789538249          0.5978
H632       H    0.7683811216    0.4096188115    0.5204907992           0.625
H633       H    0.7876934268    0.4071727608    0.4727646010          0.5843
C634       C    0.7094172882    0.4757838302    0.5197756563         -0.3481
C635       C    0.6705708849    0.4742686106    0.5201279677         -0.3485
C636       C    0.6495870052    0.5000000000    0.5000000000         -0.3545
C637       C    0.6691582674    0.5280001456    0.4810650329         -0.3586
C638       C    0.7084705249    0.5302358507    0.4802514158         -0.3582
H639       H    0.6563335199    0.4514762644    0.5370260968          -0.344
H640       H    0.7240591188    0.4545730855    0.5381703354         -0.3416
C641       C    0.7236725270    0.5627280682    0.4528942439          0.6326
H642       H    0.6523224440    0.5493377700    0.4647020491         -0.3633
C643       C    0.7527656058    0.5496487402    0.4209422414          0.6006
H644       H    0.7512485602    0.5181966958    0.4159564174          0.5833
H645       H    0.7461561462    0.5644212797    0.3934781441          0.5839
H646       H    0.7826857529    0.5575268771    0.4286542576          0.6104
H647       H    0.7349754284    0.5876308305    0.4692521441         -0.3434
H648       H    0.6993146518    0.5753878066    0.4366576208          0.6244
C591       C    1.1495870052    0.5000000000    0.5000000000         -0.3542
C592       C    1.1696467951    0.5206014694    0.4729849145          0.6318
C593       C    1.2093154136    0.5201832872    0.4722985978           0.631
C594       C    1.2299686247    0.4995201775    0.4995935116         -0.3549
C595       C    1.2086891216    0.4800895293    0.5261538649         -0.3407
C596       C    1.1698234348    0.4797208896    0.5261570002         -0.3408
C597       C    1.2699361003    0.4979473823    0.5014392178          -0.354
C598       C    1.2286321240    0.5390537823    0.4362270592          0.6088
Cl599     Cl    1.1444491450    0.5465644710    0.4372032121          0.6128
H600       H    1.1548619672    0.4634606033    0.5489339199         -0.3286
H601       H    1.2224062787    0.4648737933    0.5501671841         -0.3271
H602       H    1.2571399221    0.5266971837    0.4293267965          0.5978
H603       H    1.2316188784    0.5706213525    0.4399895287           0.625
H604       H    1.2123065732    0.5339080243    0.4093969692          0.5843
C605       C    1.2905827118    0.5303502269    0.4924924580         -0.3481
C606       C    1.3294291151    0.5315412078    0.4914916691         -0.3485
C607       C    1.3504129948    0.5000000000    0.5000000000         -0.3545
C608       C    1.3308417326    0.4680519390    0.5110391362         -0.3586
C609       C    1.2915294751    0.4660596222    0.5123395300         -0.3582
H610       H    1.3436664801    0.5587351188    0.4833966696          -0.344
H611       H    1.2759408812    0.5577924170    0.4865606697         -0.3416
C612       C    1.2763274730    0.4246785542    0.5219190009          0.6326
H613       H    1.3476775560    0.4421589773    0.5182914455         -0.3633
C614       C    1.2472343942    0.4069645490    0.4922843370          0.6006
H615       H    1.2487514398    0.4218471164    0.4641312071          0.5833
H616       H    1.2538438538    0.3761297475    0.4876239103          0.5839
H617       H    1.2173142471    0.4084072798    0.5032140562          0.6104
H618       H    1.2650245716    0.4228232170    0.5516559509         -0.3434
H619       H    1.3006853482    0.4040934127    0.5223048178          0.6244
C562       C    0.6495870052    0.5000000000    0.0000000000         -0.3542
C563       C    0.6696467951    0.4805398242   -0.0278484639          0.6318
C564       C    0.7093154136    0.4797587702   -0.0276590922           0.631
C565       C    0.7299686247    0.4994667223    0.0003332826         -0.3549
C566       C    0.7086891216    0.5188502246    0.0269280620         -0.3407
C567       C    0.6698234348    0.5187409745    0.0272801550         -0.3408
C568       C    0.7699361003    0.5007459469    0.0023933555          -0.354
C569       C    0.7286321240    0.4511450847   -0.0566161032          0.6088
Cl570     Cl    0.6444491450    0.4543616111   -0.0634730178          0.6128
H571       H    0.6548619672    0.5354859169    0.0497031762         -0.3286
H572       H    0.7224062787    0.5370908936    0.0487325596         -0.3271
H573       H    0.7571399221    0.4408103043   -0.0469470046          0.5978
H574       H    0.7316188784    0.4643400442   -0.0855394625           0.625
H575       H    0.7123065732    0.4240220782   -0.0598833758          0.5843
C576       C    0.7905827118    0.5020893619   -0.0311950962         -0.3481
C577       C    0.8294291151    0.5014986939   -0.0326342366         -0.3485
C578       C    0.8504129948    0.5000000000    0.0000000000         -0.3545
C579       C    0.8308417326    0.5007880892    0.0337923075         -0.3586
C580       C    0.7915294751    0.5014201622    0.0360859583         -0.3582
H581       H    0.8436664801    0.5020675109   -0.0610017226          -0.344
H582       H    0.7759408812    0.5047942823   -0.0591404593         -0.3416
C583       C    0.7763274730    0.4979458954    0.0784190248          0.6326
H584       H    0.8476775560    0.4998126781    0.0606640404         -0.3633
C585       C    0.7472343942    0.4643249138    0.0862694315          0.6006
H586       H    0.7487514398    0.4420395363    0.0635218715          0.5833
H587       H    0.7538438538    0.4504977280    0.1142214171          0.5839
H588       H    0.7173142471    0.4751749964    0.0882228754          0.6104
H589       H    0.7650245716    0.5257061925    0.0892400401         -0.3434
H590       H    0.8006853482    0.4920460091    0.0981443448          0.6244
C533       C    1.1495870052    0.5000000000    0.0000000000         -0.3542
C534       C    1.1696467951    0.4995550451    0.0339711260          0.6318
C535       C    1.2093154136    0.5002998544    0.0342730631           0.631
C536       C    1.2299686247    0.5006275531    0.0000404903         -0.3549
C537       C    1.2086891216    0.5004032745   -0.0328677481         -0.3407
C538       C    1.1698234348    0.5006974393   -0.0330899465         -0.3408
C539       C    1.2699361003    0.5007906764   -0.0023789531          -0.354
C540       C    1.2286321240    0.5066418872    0.0744853759          0.6088
Cl541     Cl    1.1444491450    0.5000287767    0.0781772711          0.6128
H542       H    1.1548619672    0.5001818590   -0.0610706390         -0.3286
H543       H    1.2224062787    0.4983120782   -0.0612188507         -0.3271
H544       H    1.2571399221    0.5206767764    0.0726630046          0.5978
H545       H    1.2316188784    0.4790496600    0.0902757738           0.625
H546       H    1.2123065732    0.5267627966    0.0929645955          0.5843
C547       C    1.2905827118    0.4801014021    0.0241152496         -0.3481
C548       C    1.3294291151    0.4797413867    0.0256286572         -0.3485
C549       C    1.3504129948    0.5000000000    0.0000000000         -0.3545
C550       C    1.3308417326    0.5190771702   -0.0279034533         -0.3586
C551       C    1.2915294751    0.5199021507   -0.0301349903         -0.3582
H552       H    1.3436664801    0.4627275224    0.0483347408          -0.344
H553       H    1.2759408812    0.4615990533    0.0452321386         -0.3416
C554       C    1.2763274730    0.5474242697   -0.0624876103          0.6326
H555       H    1.3476775560    0.5355484954   -0.0491575565         -0.3633
C556       C    1.2472343942    0.5793093188   -0.0492458987          0.6006
H557       H    1.2487514398    0.5841350690   -0.0177688964          0.5833
H558       H    1.2538438538    0.6068482147   -0.0638785260          0.5839
H559       H    1.2173142471    0.5716374818   -0.0571631678          0.6104
H560       H    1.2650245716    0.5311932717   -0.0874732696         -0.3434
H561       H    1.3006853482    0.5637250879   -0.0750645825          0.6244
C504       C    1.0000000000    0.5000000000   -0.1495870052         -0.3542
C505       C    1.0304794917    0.5150078638   -0.1696467951          0.6318
C506       C    1.0304108626    0.5158086116   -0.2093154136           0.631
C507       C    0.9997515198    0.5005776850   -0.2299686247         -0.3549
C508       C    0.9705228254    0.4854553217   -0.2086891216         -0.3407
C509       C    0.9701913936    0.4856167469   -0.1698234348         -0.3408
C510       C    0.9975211532    0.4996259599   -0.2699361003          -0.354
C511       C    1.0633753814    0.5396956789   -0.2286321240          0.6088
Cl512     Cl    1.0696646478    0.5354756732   -0.1444491450          0.6128
H513       H    0.9454866061    0.4724691826   -0.1548619672         -0.3286
H514       H    0.9462023733    0.4707354802   -0.2224062787         -0.3271
H515       H    1.0553869238    0.5513783027   -0.2571399221          0.5978
H516       H    1.0899609052    0.5222635939   -0.2316188784           0.625
H517       H    1.0707215410    0.5660085368   -0.2123065732          0.5843
C518       C    1.0305165531    0.4932000406   -0.2905827118         -0.3481
C519       C    1.0320286718    0.4935654320   -0.3294291151         -0.3485
C520       C    1.0000000000    0.5000000000   -0.3504129948         -0.3545
C521       C    0.9664795856    0.5043500515   -0.3308417326         -0.3586
C522       C    0.9641165722    0.5040734328   -0.2915294751         -0.3582
H523       H    1.0599811636    0.4886975766   -0.3436664801          -0.344
H524       H    1.0577275940    0.4862849003   -0.2759408812         -0.3416
C525       C    0.9228012921    0.5139327776   -0.2763274730          0.6326
H526       H    0.9400672304    0.5093927642   -0.3476775560         -0.3633
C527       C    0.9201448444    0.5483557724   -0.2472343942          0.6006
H528       H    0.9460113403    0.5669303230   -0.2487514398          0.5833
H529       H    0.8946153997    0.5662653234   -0.2538438538          0.5839
H530       H    0.9165672028    0.5379278908   -0.2173142471          0.6104
H531       H    0.9078921773    0.4881365227   -0.2650245716         -0.3434
H532       H    0.9041999920    0.5227582262   -0.3006853482          0.6244
C475       C    1.0000000000    0.5000000000    0.1495870052         -0.3542
C476       C    0.9695205083    0.5150078638    0.1696467951          0.6318
C477       C    0.9695891374    0.5158086116    0.2093154136           0.631
C478       C    1.0002484802    0.5005776850    0.2299686247         -0.3549
C479       C    1.0294771746    0.4854553217    0.2086891216         -0.3407
C480       C    1.0298086064    0.4856167469    0.1698234348         -0.3408
C481       C    1.0024788468    0.4996259599    0.2699361003          -0.354
C482       C    0.9366246186    0.5396956789    0.2286321240          0.6088
Cl483     Cl    0.9303353522    0.5354756732    0.1444491450          0.6128
H484       H    1.0545133939    0.4724691826    0.1548619672         -0.3286
H485       H    1.0537976267    0.4707354802    0.2224062787         -0.3271
H486       H    0.9446130762    0.5513783027    0.2571399221          0.5978
H487       H    0.9100390948    0.5222635939    0.2316188784           0.625
H488       H    0.9292784590    0.5660085368    0.2123065732          0.5843
C489       C    0.9694834469    0.4932000406    0.2905827118         -0.3481
C490       C    0.9679713282    0.4935654320    0.3294291151         -0.3485
C491       C    1.0000000000    0.5000000000    0.3504129948         -0.3545
C492       C    1.0335204144    0.5043500515    0.3308417326         -0.3586
C493       C    1.0358834278    0.5040734328    0.2915294751         -0.3582
H494       H    0.9400188364    0.4886975766    0.3436664801          -0.344
H495       H    0.9422724060    0.4862849003    0.2759408812         -0.3416
C496       C    1.0771987079    0.5139327776    0.2763274730          0.6326
H497       H    1.0599327696    0.5093927642    0.3476775560         -0.3633
C498       C    1.0798551556    0.5483557724    0.2472343942          0.6006
H499       H    1.0539886597    0.5669303230    0.2487514398          0.5833
H500       H    1.1053846003    0.5662653234    0.2538438538          0.5839
H501       H    1.0834327972    0.5379278908    0.2173142471          0.6104
H502       H    1.0921078227    0.4881365227    0.2650245716         -0.3434
H503       H    1.0958000080    0.5227582262    0.3006853482          0.6244
C446       C    1.0000000000   -0.1495870052    0.5000000000         -0.3542
C447       C    1.0304794917   -0.1696467951    0.4849921362          0.6318
C448       C    1.0304108626   -0.2093154136    0.4841913884           0.631
C449       C    0.9997515198   -0.2299686247    0.4994223150         -0.3549
C450       C    0.9705228254   -0.2086891216    0.5145446783         -0.3407
C451       C    0.9701913936   -0.1698234348    0.5143832531         -0.3408
C452       C    0.9975211532   -0.2699361003    0.5003740401          -0.354
C453       C    1.0633753814   -0.2286321240    0.4603043211          0.6088
Cl454     Cl    1.0696646478   -0.1444491450    0.4645243268          0.6128
H455       H    0.9454866061   -0.1548619672    0.5275308174         -0.3286
H456       H    0.9462023733   -0.2224062787    0.5292645198         -0.3271
H457       H    1.0553869238   -0.2571399221    0.4486216973          0.5978
H458       H    1.0899609052   -0.2316188784    0.4777364061           0.625
H459       H    1.0707215410   -0.2123065732    0.4339914632          0.5843
C460       C    1.0305165531   -0.2905827118    0.5067999594         -0.3481
C461       C    1.0320286718   -0.3294291151    0.5064345680         -0.3485
C462       C    1.0000000000   -0.3504129948    0.5000000000         -0.3545
C463       C    0.9664795856   -0.3308417326    0.4956499485         -0.3586
C464       C    0.9641165722   -0.2915294751    0.4959265672         -0.3582
H465       H    1.0599811636   -0.3436664801    0.5113024234          -0.344
H466       H    1.0577275940   -0.2759408812    0.5137150997         -0.3416
C467       C    0.9228012921   -0.2763274730    0.4860672224          0.6326
H468       H    0.9400672304   -0.3476775560    0.4906072358         -0.3633
C469       C    0.9201448444   -0.2472343942    0.4516442276          0.6006
H470       H    0.9460113403   -0.2487514398    0.4330696770          0.5833
H471       H    0.8946153997   -0.2538438538    0.4337346766          0.5839
H472       H    0.9165672028   -0.2173142471    0.4620721092 0.6160000000000001
H473       H    0.9078921773   -0.2650245716    0.5118634773         -0.3434
H474       H    0.9041999920   -0.3006853482    0.4772417738          0.6244
C417       C    1.0000000000    0.1495870052    0.5000000000         -0.3542
C418       C    0.9695205083    0.1696467951    0.4849921362          0.6318
C419       C    0.9695891374    0.2093154136    0.4841913884           0.631
C420       C    1.0002484802    0.2299686247    0.4994223150         -0.3549
C421       C    1.0294771746    0.2086891216    0.5145446783         -0.3407
C422       C    1.0298086064    0.1698234348    0.5143832531         -0.3408
C423       C    1.0024788468    0.2699361003    0.5003740401          -0.354
C424       C    0.9366246186    0.2286321240    0.4603043211          0.6088
Cl425     Cl    0.9303353522    0.1444491450    0.4645243268          0.6128
H426       H    1.0545133939    0.1548619672    0.5275308174         -0.3286
H427       H    1.0537976267    0.2224062787    0.5292645198         -0.3271
H428       H    0.9446130762    0.2571399221    0.4486216973          0.5978
H429       H    0.9100390948    0.2316188784    0.4777364061           0.625
H430       H    0.9292784590    0.2123065732    0.4339914632          0.5843
C431       C    0.9694834469    0.2905827118    0.5067999594         -0.3481
C432       C    0.9679713282    0.3294291151    0.5064345680         -0.3485
C433       C    1.0000000000    0.3504129948    0.5000000000         -0.3545
C434       C    1.0335204144    0.3308417326    0.4956499485         -0.3586
C435       C    1.0358834278    0.2915294751    0.4959265672         -0.3582
H436       H    0.9400188364    0.3436664801    0.5113024234          -0.344
H437       H    0.9422724060    0.2759408812    0.5137150997         -0.3416
C438       C    1.0771987079    0.2763274730    0.4860672224          0.6326
H439       H    1.0599327696    0.3476775560    0.4906072358         -0.3633
C440       C    1.0798551556    0.2472343942    0.4516442276          0.6006
H441       H    1.0539886597    0.2487514398    0.4330696770          0.5833
H442       H    1.1053846003    0.2538438538    0.4337346766          0.5839
H443       H    1.0834327972    0.2173142471    0.4620721092          0.6104
H444       H    1.0921078227    0.2650245716    0.5118634773         -0.3434
H445       H    1.0958000080    0.3006853482    0.4772417738          0.6244
C388       C    0.8504129948   -0.0000000000    0.5000000000         -0.3542
C389       C    0.8303532049    0.0103667372    0.5323537656          0.6318
C390       C    0.7906845864    0.0097428917    0.5328604447           0.631
C391       C    0.7700313753   -0.0005882318    0.5002223640         -0.3549
C392       C    0.7913108784   -0.0100039905    0.4686891126         -0.3407
C393       C    0.8301765652   -0.0103503015    0.4685627253         -0.3408
C394       C    0.7300638997   -0.0014522365    0.4979565724          -0.354
C395       C    0.7713678760    0.0154461662    0.5731683118          0.6088
Cl396     Cl    0.8555508550    0.0228501662    0.5747633362          0.6128
H397       H    0.8451380328   -0.0180455210    0.4416560612         -0.3286
H398       H    0.7775937213   -0.0163009658    0.4409671679         -0.3271
H399       H    0.7428600779    0.0014923843    0.5755328677          0.5978
H400       H    0.7683811216    0.0464513712    0.5801929062           0.625
H401       H    0.7876934268    0.0016138191    0.5967267227          0.5843
C402       C    0.7094172882    0.0260845513    0.5172364627         -0.3481
C403       C    0.6705708849    0.0268716877    0.5185782637         -0.3485
C404       C    0.6495870052   -0.0000000000    0.5000000000         -0.3545
C405       C    0.6691582674   -0.0264076575    0.4789007879         -0.3586
C406       C    0.7084705249   -0.0278495568    0.4770083617         -0.3582
H407       H    0.6563335199    0.0497854137    0.5353114335          -0.344
H408       H    0.7240591188    0.0499565409    0.5320144199         -0.3416
C409       C    0.7236725270   -0.0636344673    0.4541260710          0.6326
H410       H    0.6523224440   -0.0483776897    0.4633972675         -0.3633
C411       C    0.7527656058   -0.0902486537    0.4761188965          0.6006
H412       H    0.7512485602   -0.0856517633    0.5076301348          0.5833
H413       H    0.7461561462   -0.1208640537    0.4701857823          0.5839
H414       H    0.7826857529   -0.0852295638    0.4663031454          0.6104
H415       H    0.7349754284   -0.0554257787    0.4254843899         -0.3434
H416       H    0.6993146518   -0.0829021938    0.4468699270          0.6244
C359       C    1.3504129948   -0.0000000000    0.5000000000         -0.3542
C360       C    1.3303532049    0.0180973183    0.4712472183          0.6318
C361       C    1.2906845864    0.0188865814    0.4713987796           0.631
C362       C    1.2700313753    0.0005487001    0.5003072305         -0.3549
C363       C    1.2913108784   -0.0175323716    0.5278040903         -0.3407
C364       C    1.3301765652   -0.0174063023    0.5281505173         -0.3408
C365       C    1.2300638997   -0.0006298938    0.5024264833          -0.354
C366       C    1.2713678760    0.0460734490    0.4410981902          0.6088
Cl367     Cl    1.3555508550    0.0425306368    0.4344040285          0.6128
H368       H    1.3451380328   -0.0330526524    0.5513534633         -0.3286
H369       H    1.2775937213   -0.0347024835    0.5504612167         -0.3271
H370       H    1.2428600779    0.0568616126    0.4502586859          0.5978
H371       H    1.2683811216    0.0315017412    0.4128434031           0.625
H372       H    1.2876934268    0.0730077749    0.4365293131          0.5843
C373       C    1.2094172882   -0.0035883153    0.4689416122         -0.3481
C374       C    1.1705708849   -0.0030675956    0.4674757116         -0.3485
C375       C    1.1495870052   -0.0000000000    0.5000000000         -0.3545
C376       C    1.1691582674    0.0008391988    0.5337910768         -0.3586
C377       C    1.2084705249    0.0003182483    0.5361124904         -0.3582
H378       H    1.1563335199   -0.0050010393    0.4391684756          -0.344
H379       H    1.2240591188   -0.0076350708    0.4411588175         -0.3416
C380       C    1.2236725270    0.0058259180    0.5782292878          0.6326
H381       H    1.1523224440    0.0031067769    0.5605847244         -0.3633
C382       C    1.2527656058    0.0397857665    0.5844524682          0.6006
H383       H    1.2512485602    0.0609505116    0.5606587063          0.5833
H384       H    1.2461561462    0.0549422171    0.6117065792          0.5839
H385       H    1.2826857529    0.0290422740    0.5869258470          0.6104
H386       H    1.2349754284   -0.0213814094    0.5903738260         -0.3434
H387       H    1.1993146518    0.0126683181    0.5976477962          0.6244
C330       C    0.0000000000   -0.1495870052    0.0000000000         -0.3542
C331       C   -0.0218623369   -0.1696467951   -0.0260052612          0.6318
C332       C   -0.0226234287   -0.2093154136   -0.0257471016           0.631
C333       C   -0.0005014866   -0.2299686247    0.0003794386         -0.3549
C334       C    0.0211728615   -0.2086891216    0.0251428206         -0.3407
C335       C    0.0210953933   -0.1698234348    0.0255032422         -0.3408
C336       C    0.0009560732   -0.2699361003    0.0023174364          -0.354
C337       C   -0.0537016211   -0.2286321240   -0.0520415391          0.6088
Cl338     Cl   -0.0511083634   -0.1444491450   -0.0591576008          0.6128
H339       H    0.0397702342   -0.1548619672    0.0463463537         -0.3286
H340       H    0.0412824196   -0.2224062787    0.0452366952         -0.3271
H341       H   -0.0631344852   -0.2571399221   -0.0414906989          0.5978
H342       H   -0.0431342097   -0.2316188784   -0.0820248258           0.625
H343       H   -0.0810078088   -0.2123065732   -0.0528809815          0.5843
C344       C   -0.0006963424   -0.2905827118   -0.0312572322         -0.3481
C345       C   -0.0014127962   -0.3294291151   -0.0326380681         -0.3485
C346       C   -0.0000000000   -0.3504129948    0.0000000000         -0.3545
C347       C    0.0037936047   -0.3308417326    0.0335879397         -0.3586
C348       C    0.0046273792   -0.2915294751    0.0358162059         -0.3582
H349       H   -0.0033718930   -0.3436664801   -0.0609435402          -0.344
H350       H   -0.0004902360   -0.2759408812   -0.0593324425         -0.3416
C351       C    0.0049359684   -0.2763274730    0.0782904784          0.6326
H352       H    0.0052145502   -0.3476775560    0.0604397994         -0.3633
C353       C   -0.0278525433   -0.2472343942    0.0891031000          0.6006
H354       H   -0.0520747110   -0.2487514398    0.0684300226          0.5833
H355       H   -0.0391361550   -0.2538438538    0.1181751600          0.5839
H356       H   -0.0168716286   -0.2173142471    0.0900827658          0.6104
H357       H    0.0335494515   -0.2650245716    0.0865969249         -0.3434
H358       H    0.0008157258   -0.3006853482    0.0984627492          0.6244
C301       C    0.0000000000    0.3504129948    0.0000000000         -0.3542
C302       C   -0.0198491332    0.3303532049    0.0275725824          0.6318
C303       C   -0.0194121955    0.2906845864    0.0282471137           0.631
C304       C    0.0004908427    0.2700313753    0.0003931105         -0.3549
C305       C    0.0191821314    0.2913108784   -0.0266926456         -0.3407
C306       C    0.0195505447    0.3301765652   -0.0267059391         -0.3408
C307       C    0.0020121745    0.2300638997   -0.0014952394          -0.354
C308       C   -0.0372814242    0.2713678760    0.0648250052          0.6088
Cl309     Cl   -0.0448161621    0.3555508550    0.0640562109          0.6128
H310       H    0.0351769436    0.3451380328   -0.0499223263         -0.3286
H311       H    0.0337303027    0.2775937213   -0.0511161759         -0.3271
H312       H   -0.0247393540    0.2428600779    0.0713821104          0.5978
H313       H   -0.0689406945    0.2683811216    0.0619339384           0.625
H314       H   -0.0313982077    0.2876934268    0.0915030920          0.5843
C315       C   -0.0301317981    0.2094172882    0.0083411153         -0.3481
C316       C   -0.0312947457    0.1705708849    0.0093743464         -0.3485
C317       C   -0.0000000000    0.1495870052    0.0000000000         -0.3545
C318       C    0.0316316977    0.1691582674   -0.0119154029         -0.3586
C319       C    0.0335874201    0.2084705249   -0.0132702093         -0.3582
H320       H   -0.0582552370    0.1563335199    0.0182157108          -0.344
H321       H   -0.0574000903    0.2240591188    0.0150269325         -0.3416
C322       C    0.0746887690    0.2236725270   -0.0239864664          0.6326
H323       H    0.0573149576    0.1523224440   -0.0198785442         -0.3633
C324       C    0.0932127506    0.2527656058    0.0051487595          0.6006
H325       H    0.0791117107    0.2512485602    0.0337013464          0.5833
H326       H    0.1241642775    0.2461561462    0.0089576369          0.5839
H327       H    0.0914693546    0.2826857529   -0.0057370479          0.6104
H328       H    0.0757238781    0.2349754284   -0.0537632530         -0.3434
H329       H    0.0952554591    0.1993146518   -0.0249394446          0.6244
C272       C   -0.1495870052   -0.0000000000    0.0000000000         -0.3542
C273       C   -0.1696467951    0.0291604274    0.0174328672          0.6318
C274       C   -0.2093154136    0.0290270144    0.0182253998           0.631
C275       C   -0.2299686247   -0.0002945606    0.0005556046         -0.3549
C276       C   -0.2086891216   -0.0281990240   -0.0168898354         -0.3407
C277       C   -0.1698234348   -0.0285424672   -0.0167558511         -0.3408
C278       C   -0.2699361003   -0.0024402965   -0.0005740561          -0.354
C279       C   -0.2286321240    0.0599433874    0.0447099117          0.6088
Cl280     Cl   -0.1444491450    0.0665545027    0.0410144451          0.6128
H281       H   -0.1548619672   -0.0520982863   -0.0318657275         -0.3286
H282       H   -0.2224062787   -0.0512441273   -0.0335355956         -0.3271
H283       H   -0.2571399221    0.0510328205    0.0557054086          0.5978
H284       H   -0.2316188784    0.0878564120    0.0294937782           0.625
H285       H   -0.2123065732    0.0651290275    0.0715323219          0.5843
C286       C   -0.2905827118    0.0309678839   -0.0042999565         -0.3481
C287       C   -0.3294291151    0.0324453458   -0.0038130066         -0.3485
C288       C   -0.3504129948   -0.0000000000    0.0000000000         -0.3545
C289       C   -0.3308417326   -0.0337629278    0.0016142608         -0.3586
C290       C   -0.2915294751   -0.0360956826    0.0011467087         -0.3582
H291       H   -0.3436664801    0.0607007705   -0.0063954062          -0.344
H292       H   -0.2759408812    0.0586505188   -0.0089830792         -0.3416
C293       C   -0.2763274730   -0.0780750286    0.0076192320          0.6326
H294       H   -0.3476775560   -0.0604974962    0.0044959801         -0.3633
C295       C   -0.2472343942   -0.0835174156    0.0417129222          0.6006
H296       H   -0.2487514398   -0.0592443254    0.0623261857          0.5833
H297       H   -0.2538438538   -0.1104166116    0.0574906857          0.5839
H298       H   -0.2173142471   -0.0862366359    0.0310290056          0.6104
H299       H   -0.2650245716   -0.0908405992   -0.0193022961         -0.3434
H300       H   -0.3006853482   -0.0973314373    0.0149053581          0.6244
C243       C    0.1495870052   -0.0000000000    0.0000000000         -0.3542
C244       C    0.1696467951    0.0162326284   -0.0298452201          0.6318
C245       C    0.2093154136    0.0157145079   -0.0304595963           0.631
C246       C    0.2299686247   -0.0005362886   -0.0003284158         -0.3549
C247       C    0.2086891216   -0.0156813070    0.0288885462         -0.3407
C248       C    0.1698234348   -0.0160451407    0.0289479609         -0.3408
C249       C    0.2699361003   -0.0018086589    0.0017358976          -0.354
C250       C    0.2286321240    0.0288529491   -0.0689905300          0.6088
Cl251     Cl    0.1444491450    0.0364246030   -0.0691732234          0.6128
H252       H    0.1548619672   -0.0286349956    0.0539415707         -0.3286
H253       H    0.2224062787   -0.0270499908    0.0549444697         -0.3271
H254       H    0.2571399221    0.0155872549   -0.0739221131          0.5978
H255       H    0.2316188784    0.0606247672   -0.0700947194           0.625
H256       H    0.2123065732    0.0196688279   -0.0947195888          0.5843
C257       C    0.2905827118    0.0288470734   -0.0120559452         -0.3481
C258       C    0.3294291151    0.0298711869   -0.0132269300         -0.3485
C259       C    0.3504129948   -0.0000000000    0.0000000000         -0.3545
C260       C    0.3308417326   -0.0298866399    0.0157901831         -0.3586
C261       C    0.2915294751   -0.0316569135    0.0173796741         -0.3582
H262       H    0.3436664801    0.0555092483   -0.0253812550          -0.344
H263       H    0.2759408812    0.0550609679   -0.0221103793         -0.3416
C264       C    0.2763274730   -0.0710888267    0.0331683812          0.6326
H265       H    0.3476775560   -0.0543677581    0.0269129665         -0.3633
C266       C    0.2472343942   -0.0931221186    0.0065876865          0.6006
H267       H    0.2487514398   -0.0827151208   -0.0235085580          0.5833
H268       H    0.2538438538   -0.1243069479    0.0066925157          0.5839
H269       H    0.2173142471   -0.0900266176    0.0171687123          0.6104
H270       H    0.2650245716   -0.0683795496    0.0628397190         -0.3434
H271       H    0.3006853482   -0.0913734031    0.0366944081          0.6244
C214       C   -0.0000000000    0.0000000000   -0.3504129948         -0.3542
C215       C    0.0149183755    0.0305233920   -0.3303532049          0.6318
C216       C    0.0157193213    0.0304571126   -0.2906845864           0.631
C217       C    0.0005784116   -0.0002467842   -0.2700313753         -0.3549
C218       C   -0.0144581328   -0.0295197203   -0.2913108784         -0.3407
C219       C   -0.0142957358   -0.0298506770   -0.3301765652         -0.3408
C220       C   -0.0003667658   -0.0024799335   -0.2300638997          -0.354
C221       C    0.0395095713    0.0634915716   -0.2713678760          0.6088
Cl222     Cl    0.0352711317    0.0697684299   -0.3555508550          0.6128
H223       H   -0.0273707623   -0.0545939319   -0.3451380328         -0.3286
H224       H   -0.0291065572   -0.0538832542   -0.2775937213         -0.3271
H225       H    0.0512155821    0.0555374240   -0.2428600779          0.5978
H226       H    0.0219995622    0.0900258371   -0.2683811216           0.625
H227       H    0.0658007631    0.0709148988   -0.2876934268          0.5843
C228       C   -0.0068894625    0.0304964714   -0.2094172882         -0.3481
C229       C   -0.0065285091    0.0320096556   -0.1705708849         -0.3485
C230       C   -0.0000000000   -0.0000000000   -0.1495870052         -0.3545
C231       C    0.0044483782   -0.0335075075   -0.1691582674         -0.3586
C232       C    0.0041786935   -0.0358713223   -0.2084705249         -0.3582
H233       H   -0.0114783532    0.0599477453   -0.1563335199          -0.344
H234       H   -0.0138844074    0.0576871068   -0.2240591188         -0.3416
C235       C    0.0141592106   -0.0771574983   -0.2236725270          0.6326
H236       H    0.0095685603   -0.0599049542   -0.1523224440         -0.3633
C237       C    0.0485898509   -0.0797129411   -0.2527656058          0.6006
H238       H    0.0670884320   -0.0537920608   -0.2512485602          0.5833
H239       H    0.0665742256   -0.1051897312   -0.2461561462          0.5839
H240       H    0.0381725107   -0.0833211617   -0.2826857529          0.6104
H241       H   -0.0115931915   -0.0921422325   -0.2349754284         -0.3434
H242       H    0.0230391955   -0.0957328254   -0.1993146518          0.6244
C185       C    0.0000000000    0.0000000000    0.1495870052         -0.3542
C186       C    0.0246904530    0.0233370288    0.1696467951          0.6318
C187       C    0.0254170640    0.0229935997    0.2093154136           0.631
C188       C    0.0004548488   -0.0004342522    0.2299686247         -0.3549
C189       C   -0.0239069528   -0.0225590137    0.2086891216         -0.3407
C190       C   -0.0238711727   -0.0229259263    0.1698234348         -0.3408
C191       C   -0.0012145958   -0.0021930217    0.2699361003          -0.354
C192       C    0.0592960602    0.0455649332    0.2286321240          0.6088
Cl193     Cl    0.0575328464    0.0529306917    0.1444491450          0.6128
H194       H   -0.0448051912   -0.0414988056    0.1548619672         -0.3286
H195       H   -0.0461806872   -0.0402236360    0.2224062787         -0.3271
H196       H    0.0674616411    0.0340054158    0.2571399221          0.5978
H197       H    0.0522236588    0.0765592682    0.2316188784           0.625
H198       H    0.0865193376    0.0432789500    0.2123065732          0.5843
C199       C    0.0042631458    0.0309729729    0.2905827118         -0.3481
C200       C    0.0051326781    0.0322629059    0.3294291151         -0.3485
C201       C   -0.0000000000    0.0000000000    0.3504129948         -0.3545
C202       C   -0.0076064248   -0.0329345325    0.3308417326         -0.3586
C203       C   -0.0086893345   -0.0350529416    0.2915294751         -0.3582
H204       H    0.0103130489    0.0601591704    0.3436664801          -0.344
H205       H    0.0072661838    0.0588878734    0.2759408812         -0.3416
C206       C   -0.0138488939   -0.0772138001    0.2763274730          0.6326
H207       H   -0.0120860829   -0.0594481916    0.3476775560         -0.3633
C208       C    0.0174894727   -0.0917019353    0.2472343942          0.6006
H209       H    0.0439150622   -0.0739317985    0.2487514398          0.5833
H210       H    0.0253774984   -0.1218728421    0.2538438538          0.5839
H211       H    0.0064685359   -0.0914205371    0.2173142471          0.6104
H212       H   -0.0432240644   -0.0821965532    0.2650245716         -0.3434
H213       H   -0.0120604610   -0.0977247342    0.3006853482          0.6244
loop_
_geom_bond_atom_site_label_1
_geom_bond_atom_site_label_2
_geom_bond_distance
_geom_bond_site_symmetry_2
_ccdc_geom_bond_type
Zn1          O5 1.942       .   S
Zn1          O6 1.922       .   S
Zn1         O10 1.922       .   S
Zn1         O17 1.922       .   S
Zn2          O5 1.942       .   S
Zn2          O7 1.922       .   S
Zn2          O9 1.922       .   S
Zn2         O13 1.922       .   S
Zn3          O5 1.942       .   S
Zn3          O8 1.922       .   S
Zn3         O11 1.922       .   S
Zn3         O14 1.922       .   S
Zn4          O5 1.942       .   S
Zn4         O12 1.922       .   S
Zn4         O15 1.922       .   S
Zn4         O16 1.922       .   S
O6          C18 1.304       .   A
O7          C19 1.304       .   A
O8          C20 1.304       .   A
O9          C18 1.304       .   A
O10         C20 1.304       .   A
O11         C19 1.304       .   A
O12         C21 1.304       .   A
O13         C22 1.304       .   A
O14         C21 1.304       .   A
O15         C22 1.304       .   A
O16         C23 1.304       .   A
O17         C23 1.304       .   A
C18        C243 1.540       .   S
C19        C230 1.540       .   S
C20        C330 1.540       .   S
C21        C272 1.540       .   S
C22        C317 1.540       .   S
C23        C185 1.540       .   S
Zn24        O28 1.942       .   S
Zn24        O29 1.922       .   S
Zn24        O33 1.922       .   S
Zn24        O40 1.922       .   S
Zn25        O28 1.942       .   S
Zn25        O30 1.922       .   S
Zn25        O32 1.922       .   S
Zn25        O36 1.922       .   S
Zn26        O28 1.942       .   S
Zn26        O31 1.922       .   S
Zn26        O34 1.922       .   S
Zn26        O37 1.922       .   S
Zn27        O28 1.942       .   S
Zn27        O35 1.922       .   S
Zn27        O38 1.922       .   S
Zn27        O39 1.922       .   S
O29         C41 1.304       .   A
O30         C42 1.304       .   A
O31         C43 1.304       .   A
O32         C41 1.304       .   A
O33         C43 1.304       .   A
O34         C42 1.304       .   A
O35         C44 1.304       .   A
O36         C45 1.304       .   A
O37         C44 1.304       .   A
O38         C45 1.304       .   A
O39         C46 1.304       .   A
O40         C46 1.304       .   A
C41        C201 1.540   1_655   S
C42        C375 1.540       .   S
C43        C417 1.540       .   S
C44        C214 1.540   1_656   S
C45        C446 1.540       .   S
C46        C388 1.540       .   S
Zn47        O51 1.942       .   S
Zn47        O52 1.922       .   S
Zn47        O56 1.922       .   S
Zn47        O63 1.922       .   S
Zn48        O51 1.942       .   S
Zn48        O53 1.922       .   S
Zn48        O55 1.922       .   S
Zn48        O59 1.922       .   S
Zn49        O51 1.942       .   S
Zn49        O54 1.922       .   S
Zn49        O57 1.922       .   S
Zn49        O60 1.922       .   S
Zn50        O51 1.942       .   S
Zn50        O58 1.922       .   S
Zn50        O61 1.922       .   S
Zn50        O62 1.922       .   S
O52         C64 1.304       .   A
O53         C65 1.304       .   A
O54         C66 1.304       .   A
O55         C64 1.304       .   A
O56         C66 1.304       .   A
O57         C65 1.304       .   A
O58         C67 1.304       .   A
O59         C68 1.304       .   A
O60         C67 1.304       .   A
O61         C68 1.304       .   A
O62         C69 1.304       .   A
O63         C69 1.304       .   A
C64        C301 1.540   1_655   S
C65        C475 1.540       .   S
C66        C533 1.540       .   S
C67        C346 1.540   1_665   S
C68        C578 1.540       .   S
C69        C504 1.540       .   S
Zn70        O74 1.942       .   S
Zn70        O75 1.922       .   S
Zn70        O79 1.922       .   S
Zn70        O86 1.922       .   S
Zn71        O74 1.942       .   S
Zn71        O76 1.922       .   S
Zn71        O78 1.922       .   S
Zn71        O82 1.922       .   S
Zn72        O74 1.942       .   S
Zn72        O77 1.922       .   S
Zn72        O80 1.922       .   S
Zn72        O83 1.922       .   S
Zn73        O74 1.942       .   S
Zn73        O81 1.922       .   S
Zn73        O84 1.922       .   S
Zn73        O85 1.922       .   S
O75         C87 1.304       .   A
O76         C88 1.304       .   A
O77         C89 1.304       .   A
O78         C87 1.304       .   A
O79         C89 1.304       .   A
O80         C88 1.304       .   A
O81         C90 1.304       .   A
O82         C91 1.304       .   A
O83         C90 1.304       .   A
O84         C91 1.304       .   A
O85         C92 1.304       .   A
O86         C92 1.304       .   A
C87        C433 1.540       .   S
C88        C491 1.540       .   S
C89        C620 1.540       .   S
C90        C462 1.540   1_565   S
C91        C591 1.540       .   S
C92        C520 1.540   1_556   S
Zn93        O97 1.942       .   S
Zn93        O98 1.922       .   S
Zn93       O102 1.922       .   S
Zn93       O109 1.922       .   S
Zn94        O97 1.942       .   S
Zn94        O99 1.922       .   S
Zn94       O101 1.922       .   S
Zn94       O105 1.922       .   S
Zn95        O97 1.942       .   S
Zn95       O100 1.922       .   S
Zn95       O103 1.922       .   S
Zn95       O106 1.922       .   S
Zn96        O97 1.942       .   S
Zn96       O104 1.922       .   S
Zn96       O107 1.922       .   S
Zn96       O108 1.922       .   S
O98        C110 1.304       .   A
O99        C111 1.304       .   A
O100       C112 1.304       .   A
O101       C110 1.304       .   A
O102       C112 1.304       .   A
O103       C111 1.304       .   A
O104       C113 1.304       .   A
O105       C114 1.304       .   A
O106       C113 1.304       .   A
O107       C114 1.304       .   A
O108       C115 1.304       .   A
O109       C115 1.304       .   A
C110       C259 1.540   1_565   S
C111       C649 1.540       .   S
C112       C736 1.540       .   S
C113       C288 1.540   1_665   S
C114       C707 1.540       .   S
C115       C678 1.540       .   S
Zn116      O120 1.942       .   S
Zn116      O121 1.922       .   S
Zn116      O125 1.922       .   S
Zn116      O132 1.922       .   S
Zn117      O120 1.942       .   S
Zn117      O122 1.922       .   S
Zn117      O124 1.922       .   S
Zn117      O128 1.922       .   S
Zn118      O120 1.942       .   S
Zn118      O123 1.922       .   S
Zn118      O126 1.922       .   S
Zn118      O129 1.922       .   S
Zn119      O120 1.942       .   S
Zn119      O127 1.922       .   S
Zn119      O130 1.922       .   S
Zn119      O131 1.922       .   S
O121       C133 1.304       .   A
O122       C134 1.304       .   A
O123       C135 1.304       .   A
O124       C133 1.304       .   A
O125       C135 1.304       .   A
O126       C134 1.304       .   A
O127       C136 1.304       .   A
O128       C137 1.304       .   A
O129       C136 1.304       .   A
O130       C137 1.304       .   A
O131       C138 1.304       .   A
O132       C138 1.304       .   A
C133       C359 1.540   1_465   S
C134       C665 1.540       .   S
C135       C765 1.540       .   S
C136       C404 1.540   1_565   S
C137       C794 1.540       .   S
C138       C694 1.540   1_556   S
Zn139      O143 1.942       .   S
Zn139      O144 1.922       .   S
Zn139      O148 1.922       .   S
Zn139      O155 1.922       .   S
Zn140      O143 1.942       .   S
Zn140      O145 1.922       .   S
Zn140      O147 1.922       .   S
Zn140      O151 1.922       .   S
Zn141      O143 1.942       .   S
Zn141      O146 1.922       .   S
Zn141      O149 1.922       .   S
Zn141      O152 1.922       .   S
Zn142      O143 1.942       .   S
Zn142      O150 1.922       .   S
Zn142      O153 1.922       .   S
Zn142      O154 1.922       .   S
O144       C156 1.304       .   A
O145       C157 1.304       .   A
O146       C158 1.304       .   A
O147       C156 1.304       .   A
O148       C158 1.304       .   A
O149       C157 1.304       .   A
O150       C159 1.304       .   A
O151       C160 1.304       .   A
O152       C159 1.304       .   A
O153       C160 1.304       .   A
O154       C161 1.304       .   A
O155       C161 1.304       .   A
C156       C549 1.540   1_455   S
C157       C723 1.540   1_545   S
C158       C852 1.540       .   S
C159       C562 1.540       .   S
C160       C823 1.540       .   S
C161       C752 1.540       .   S
Zn162      O166 1.942       .   S
Zn162      O167 1.922       .   S
Zn162      O171 1.922       .   S
Zn162      O178 1.922       .   S
Zn163      O166 1.942       .   S
Zn163      O168 1.922       .   S
Zn163      O170 1.922       .   S
Zn163      O174 1.922       .   S
Zn164      O166 1.942       .   S
Zn164      O169 1.922       .   S
Zn164      O172 1.922       .   S
Zn164      O175 1.922       .   S
Zn165      O166 1.942       .   S
Zn165      O173 1.922       .   S
Zn165      O176 1.922       .   S
Zn165      O177 1.922       .   S
O167       C179 1.304       .   A
O168       C180 1.304       .   A
O169       C181 1.304       .   A
O170       C179 1.304       .   A
O171       C181 1.304       .   A
O172       C180 1.304       .   A
O173       C182 1.304       .   A
O174       C183 1.304       .   A
O175       C182 1.304       .   A
O176       C183 1.304       .   A
O177       C184 1.304       .   A
O178       C184 1.304       .   A
C179       C607 1.540   1_455   S
C180       C868 1.540   1_556   S
C181       C781 1.540   1_545   S
C182       C636 1.540       .   S
C183       C810 1.540       .   S
C184       C839 1.540       .   S
C852       C853 0.037       .   A
C852       C857 0.036       .   A
C853       C854 0.037       .   A
C853      Cl860 0.047       .   A
C854       C855 0.037       .   A
C854       C859 0.042       .   A
C855       C856 0.036       .   A
C855       C858 0.037       .   A
C856       C857 0.036       .   A
C856       H862 0.029       .   A
C857       H861 0.030       .   A
C858       C866 0.037       .   A
C858       C870 0.037       .   A
C859       H863 0.030       .   A
C859       H864 0.030       .   A
C859       H865 0.030       .   A
C866       C867 0.036       .   A
C866       H872 0.029       .   A
C867       C868 0.036       .   A
C867       H871 0.030       .   A
C868       C869 0.036       .   A
C869       C870 0.037       .   A
C869       H874 0.030       .   A
C870       C873 0.042       .   A
C873       C875 0.042       .   A
C873       H879 0.030       .   A
C873       H880 0.030       .   A
C875       H876 0.030       .   A
C875       H877 0.030       .   A
C875       H878 0.030       .   A
C823       C824 0.037       .   A
C823       C828 0.036       .   A
C824       C825 0.037       .   A
C824      Cl831 0.047       .   A
C825       C826 0.037       .   A
C825       C830 0.042       .   A
C826       C827 0.036       .   A
C826       C829 0.037       .   A
C827       C828 0.036       .   A
C827       H833 0.029       .   A
C828       H832 0.030       .   A
C829       C837 0.037       .   A
C829       C841 0.037       .   A
C830       H834 0.030       .   A
C830       H835 0.030       .   A
C830       H836 0.030       .   A
C837       C838 0.036       .   A
C837       H843 0.029       .   A
C838       C839 0.036       .   A
C838       H842 0.030       .   A
C839       C840 0.036       .   A
C840       C841 0.037       .   A
C840       H845 0.030       .   A
C841       C844 0.042       .   A
C844       C846 0.042       .   A
C844       H850 0.030       .   A
C844       H851 0.030       .   A
C846       H847 0.030       .   A
C846       H848 0.030       .   A
C846       H849 0.030       .   A
C794       C795 0.037       .   A
C794       C799 0.036       .   A
C795       C796 0.037       .   A
C795      Cl802 0.047       .   A
C796       C797 0.037       .   A
C796       C801 0.042       .   A
C797       C798 0.036       .   A
C797       C800 0.037       .   A
C798       C799 0.036       .   A
C798       H804 0.029       .   A
C799       H803 0.030       .   A
C800       C808 0.037       .   A
C800       C812 0.037       .   A
C801       H805 0.030       .   A
C801       H806 0.030       .   A
C801       H807 0.030       .   A
C808       C809 0.036       .   A
C808       H814 0.029       .   A
C809       C810 0.036       .   A
C809       H813 0.030       .   A
C810       C811 0.036       .   A
C811       C812 0.037       .   A
C811       H816 0.030       .   A
C812       C815 0.042       .   A
C815       C817 0.042       .   A
C815       H821 0.030       .   A
C815       H822 0.030       .   A
C817       H818 0.030       .   A
C817       H819 0.030       .   A
C817       H820 0.030       .   A
C765       C766 0.037       .   A
C765       C770 0.036       .   A
C766       C767 0.037       .   A
C766      Cl773 0.047       .   A
C767       C768 0.037       .   A
C767       C772 0.042       .   A
C768       C769 0.036       .   A
C768       C771 0.037       .   A
C769       C770 0.036       .   A
C769       H775 0.029       .   A
C770       H774 0.030       .   A
C771       C779 0.037       .   A
C771       C783 0.037       .   A
C772       H776 0.030       .   A
C772       H777 0.030       .   A
C772       H778 0.030       .   A
C779       C780 0.036       .   A
C779       H785 0.029       .   A
C780       C781 0.036       .   A
C780       H784 0.030       .   A
C781       C782 0.036       .   A
C782       C783 0.037       .   A
C782       H787 0.030       .   A
C783       C786 0.042       .   A
C786       C788 0.042       .   A
C786       H792 0.030       .   A
C786       H793 0.030       .   A
C788       H789 0.030       .   A
C788       H790 0.030       .   A
C788       H791 0.030       .   A
C736       C737 0.037       .   A
C736       C741 0.036       .   A
C737       C738 0.037       .   A
C737      Cl744 0.047       .   A
C738       C739 0.037       .   A
C738       C743 0.042       .   A
C739       C740 0.036       .   A
C739       C742 0.037       .   A
C740       C741 0.036       .   A
C740       H746 0.029       .   A
C741       H745 0.030       .   A
C742       C750 0.037       .   A
C742       C754 0.037       .   A
C743       H747 0.030       .   A
C743       H748 0.030       .   A
C743       H749 0.030       .   A
C750       C751 0.036       .   A
C750       H756 0.029       .   A
C751       C752 0.036       .   A
C751       H755 0.030       .   A
C752       C753 0.036       .   A
C753       C754 0.037       .   A
C753       H758 0.030       .   A
C754       C757 0.042       .   A
C757       C759 0.042       .   A
C757       H763 0.030       .   A
C757       H764 0.030       .   A
C759       H760 0.030       .   A
C759       H761 0.030       .   A
C759       H762 0.030       .   A
C707       C708 0.037       .   A
C707       C712 0.036       .   A
C708       C709 0.037       .   A
C708      Cl715 0.047       .   A
C709       C710 0.037       .   A
C709       C714 0.042       .   A
C710       C711 0.036       .   A
C710       C713 0.037       .   A
C711       C712 0.036       .   A
C711       H717 0.029       .   A
C712       H716 0.030       .   A
C713       C721 0.037       .   A
C713       C725 0.037       .   A
C714       H718 0.030       .   A
C714       H719 0.030       .   A
C714       H720 0.030       .   A
C721       C722 0.036       .   A
C721       H727 0.029       .   A
C722       C723 0.036       .   A
C722       H726 0.030       .   A
C723       C724 0.036       .   A
C724       C725 0.037       .   A
C724       H729 0.030       .   A
C725       C728 0.042       .   A
C728       C730 0.042       .   A
C728       H734 0.030       .   A
C728       H735 0.030       .   A
C730       H731 0.030       .   A
C730       H732 0.030       .   A
C730       H733 0.030       .   A
C678       C679 0.037       .   A
C678       C683 0.036       .   A
C679       C680 0.037       .   A
C679      Cl686 0.047       .   A
C680       C681 0.037       .   A
C680       C685 0.042       .   A
C681       C682 0.036       .   A
C681       C684 0.037       .   A
C682       C683 0.036       .   A
C682       H688 0.029       .   A
C683       H687 0.030       .   A
C684       C692 0.037       .   A
C684       C696 0.037       .   A
C685       H689 0.030       .   A
C685       H690 0.030       .   A
C685       H691 0.030       .   A
C692       C693 0.036       .   A
C692       H698 0.029       .   A
C693       C694 0.036       .   A
C693       H697 0.030       .   A
C694       C695 0.036       .   A
C695       C696 0.037       .   A
C695       H700 0.030       .   A
C696       C699 0.042       .   A
C699       C701 0.042       .   A
C699       H705 0.030       .   A
C699       H706 0.030       .   A
C701       H702 0.030       .   A
C701       H703 0.030       .   A
C701       H704 0.030       .   A
C649       C650 0.037       .   A
C649       C654 0.036       .   A
C650       C651 0.037       .   A
C650      Cl657 0.047       .   A
C651       C652 0.037       .   A
C651       C656 0.042       .   A
C652       C653 0.036       .   A
C652       C655 0.037       .   A
C653       C654 0.036       .   A
C653       H659 0.029       .   A
C654       H658 0.030       .   A
C655       C663 0.037       .   A
C655       C667 0.037       .   A
C656       H660 0.030       .   A
C656       H661 0.030       .   A
C656       H662 0.030       .   A
C663       C664 0.036       .   A
C663       H669 0.029       .   A
C664       C665 0.036       .   A
C664       H668 0.030       .   A
C665       C666 0.036       .   A
C666       C667 0.037       .   A
C666       H671 0.030       .   A
C667       C670 0.042       .   A
C670       C672 0.042       .   A
C670       H676 0.030       .   A
C670       H677 0.030       .   A
C672       H673 0.030       .   A
C672       H674 0.030       .   A
C672       H675 0.030       .   A
C620       C621 0.037       .   A
C620       C625 0.036       .   A
C621       C622 0.037       .   A
C621      Cl628 0.047       .   A
C622       C623 0.037       .   A
C622       C627 0.042       .   A
C623       C624 0.036       .   A
C623       C626 0.037       .   A
C624       C625 0.036       .   A
C624       H630 0.029       .   A
C625       H629 0.030       .   A
C626       C634 0.037       .   A
C626       C638 0.037       .   A
C627       H631 0.030       .   A
C627       H632 0.030       .   A
C627       H633 0.030       .   A
C634       C635 0.036       .   A
C634       H640 0.029       .   A
C635       C636 0.036       .   A
C635       H639 0.030       .   A
C636       C637 0.036       .   A
C637       C638 0.037       .   A
C637       H642 0.030       .   A
C638       C641 0.042       .   A
C641       C643 0.042       .   A
C641       H647 0.030       .   A
C641       H648 0.030       .   A
C643       H644 0.030       .   A
C643       H645 0.030       .   A
C643       H646 0.030       .   A
C591       C592 0.037       .   A
C591       C596 0.036       .   A
C592       C593 0.037       .   A
C592      Cl599 0.047       .   A
C593       C594 0.037       .   A
C593       C598 0.042       .   A
C594       C595 0.036       .   A
C594       C597 0.037       .   A
C595       C596 0.036       .   A
C595       H601 0.029       .   A
C596       H600 0.030       .   A
C597       C605 0.037       .   A
C597       C609 0.037       .   A
C598       H602 0.030       .   A
C598       H603 0.030       .   A
C598       H604 0.030       .   A
C605       C606 0.036       .   A
C605       H611 0.029       .   A
C606       C607 0.036       .   A
C606       H610 0.030       .   A
C607       C608 0.036       .   A
C608       C609 0.037       .   A
C608       H613 0.030       .   A
C609       C612 0.042       .   A
C612       C614 0.042       .   A
C612       H618 0.030       .   A
C612       H619 0.030       .   A
C614       H615 0.030       .   A
C614       H616 0.030       .   A
C614       H617 0.030       .   A
C562       C563 0.037       .   A
C562       C567 0.036       .   A
C563       C564 0.037       .   A
C563      Cl570 0.047       .   A
C564       C565 0.037       .   A
C564       C569 0.042       .   A
C565       C566 0.036       .   A
C565       C568 0.037       .   A
C566       C567 0.036       .   A
C566       H572 0.029       .   A
C567       H571 0.030       .   A
C568       C576 0.037       .   A
C568       C580 0.037       .   A
C569       H573 0.030       .   A
C569       H574 0.030       .   A
C569       H575 0.030       .   A
C576       C577 0.036       .   A
C576       H582 0.029       .   A
C577       C578 0.036       .   A
C577       H581 0.030       .   A
C578       C579 0.036       .   A
C579       C580 0.037       .   A
C579       H584 0.030       .   A
C580       C583 0.042       .   A
C583       C585 0.042       .   A
C583       H589 0.030       .   A
C583       H590 0.030       .   A
C585       H586 0.030       .   A
C585       H587 0.030       .   A
C585       H588 0.030       .   A
C533       C534 0.037       .   A
C533       C538 0.036       .   A
C534       C535 0.037       .   A
C534      Cl541 0.047       .   A
C535       C536 0.037       .   A
C535       C540 0.042       .   A
C536       C537 0.036       .   A
C536       C539 0.037       .   A
C537       C538 0.036       .   A
C537       H543 0.029       .   A
C538       H542 0.030       .   A
C539       C547 0.037       .   A
C539       C551 0.037       .   A
C540       H544 0.030       .   A
C540       H545 0.030       .   A
C540       H546 0.030       .   A
C547       C548 0.036       .   A
C547       H553 0.029       .   A
C548       C549 0.036       .   A
C548       H552 0.030       .   A
C549       C550 0.036       .   A
C550       C551 0.037       .   A
C550       H555 0.030       .   A
C551       C554 0.042       .   A
C554       C556 0.042       .   A
C554       H560 0.030       .   A
C554       H561 0.030       .   A
C556       H557 0.030       .   A
C556       H558 0.030       .   A
C556       H559 0.030       .   A
C504       C505 0.037       .   A
C504       C509 0.036       .   A
C505       C506 0.037       .   A
C505      Cl512 0.047       .   A
C506       C507 0.037       .   A
C506       C511 0.042       .   A
C507       C508 0.036       .   A
C507       C510 0.037       .   A
C508       C509 0.036       .   A
C508       H514 0.029       .   A
C509       H513 0.030       .   A
C510       C518 0.037       .   A
C510       C522 0.037       .   A
C511       H515 0.030       .   A
C511       H516 0.030       .   A
C511       H517 0.030       .   A
C518       C519 0.036       .   A
C518       H524 0.029       .   A
C519       C520 0.036       .   A
C519       H523 0.030       .   A
C520       C521 0.036       .   A
C521       C522 0.037       .   A
C521       H526 0.030       .   A
C522       C525 0.042       .   A
C525       C527 0.042       .   A
C525       H531 0.030       .   A
C525       H532 0.030       .   A
C527       H528 0.030       .   A
C527       H529 0.030       .   A
C527       H530 0.030       .   A
C475       C476 0.037       .   A
C475       C480 0.036       .   A
C476       C477 0.037       .   A
C476      Cl483 0.047       .   A
C477       C478 0.037       .   A
C477       C482 0.042       .   A
C478       C479 0.036       .   A
C478       C481 0.037       .   A
C479       C480 0.036       .   A
C479       H485 0.029       .   A
C480       H484 0.030       .   A
C481       C489 0.037       .   A
C481       C493 0.037       .   A
C482       H486 0.030       .   A
C482       H487 0.030       .   A
C482       H488 0.030       .   A
C489       C490 0.036       .   A
C489       H495 0.029       .   A
C490       C491 0.036       .   A
C490       H494 0.030       .   A
C491       C492 0.036       .   A
C492       C493 0.037       .   A
C492       H497 0.030       .   A
C493       C496 0.042       .   A
C496       C498 0.042       .   A
C496       H502 0.030       .   A
C496       H503 0.030       .   A
C498       H499 0.030       .   A
C498       H500 0.030       .   A
C498       H501 0.030       .   A
C446       C447 0.037       .   A
C446       C451 0.036       .   A
C447       C448 0.037       .   A
C447      Cl454 0.047       .   A
C448       C449 0.037       .   A
C448       C453 0.042       .   A
C449       C450 0.036       .   A
C449       C452 0.037       .   A
C450       C451 0.036       .   A
C450       H456 0.029       .   A
C451       H455 0.030       .   A
C452       C460 0.037       .   A
C452       C464 0.037       .   A
C453       H457 0.030       .   A
C453       H458 0.030       .   A
C453       H459 0.030       .   A
C460       C461 0.036       .   A
C460       H466 0.029       .   A
C461       C462 0.036       .   A
C461       H465 0.030       .   A
C462       C463 0.036       .   A
C463       C464 0.037       .   A
C463       H468 0.030       .   A
C464       C467 0.042       .   A
C467       C469 0.042       .   A
C467       H473 0.030       .   A
C467       H474 0.030       .   A
C469       H470 0.030       .   A
C469       H471 0.030       .   A
C469       H472 0.030       .   A
C417       C418 0.037       .   A
C417       C422 0.036       .   A
C418       C419 0.037       .   A
C418      Cl425 0.047       .   A
C419       C420 0.037       .   A
C419       C424 0.042       .   A
C420       C421 0.036       .   A
C420       C423 0.037       .   A
C421       C422 0.036       .   A
C421       H427 0.029       .   A
C422       H426 0.030       .   A
C423       C431 0.037       .   A
C423       C435 0.037       .   A
C424       H428 0.030       .   A
C424       H429 0.030       .   A
C424       H430 0.030       .   A
C431       C432 0.036       .   A
C431       H437 0.029       .   A
C432       C433 0.036       .   A
C432       H436 0.030       .   A
C433       C434 0.036       .   A
C434       C435 0.037       .   A
C434       H439 0.030       .   A
C435       C438 0.042       .   A
C438       C440 0.042       .   A
C438       H444 0.030       .   A
C438       H445 0.030       .   A
C440       H441 0.030       .   A
C440       H442 0.030       .   A
C440       H443 0.030       .   A
C388       C389 0.037       .   A
C388       C393 0.036       .   A
C389       C390 0.037       .   A
C389      Cl396 0.047       .   A
C390       C391 0.037       .   A
C390       C395 0.042       .   A
C391       C392 0.036       .   A
C391       C394 0.037       .   A
C392       C393 0.036       .   A
C392       H398 0.029       .   A
C393       H397 0.030       .   A
C394       C402 0.037       .   A
C394       C406 0.037       .   A
C395       H399 0.030       .   A
C395       H400 0.030       .   A
C395       H401 0.030       .   A
C402       C403 0.036       .   A
C402       H408 0.029       .   A
C403       C404 0.036       .   A
C403       H407 0.030       .   A
C404       C405 0.036       .   A
C405       C406 0.037       .   A
C405       H410 0.030       .   A
C406       C409 0.042       .   A
C409       C411 0.042       .   A
C409       H415 0.030       .   A
C409       H416 0.030       .   A
C411       H412 0.030       .   A
C411       H413 0.030       .   A
C411       H414 0.030       .   A
C359       C360 0.037       .   A
C359       C364 0.036       .   A
C360       C361 0.037       .   A
C360      Cl367 0.047       .   A
C361       C362 0.037       .   A
C361       C366 0.042       .   A
C362       C363 0.036       .   A
C362       C365 0.037       .   A
C363       C364 0.036       .   A
C363       H369 0.029       .   A
C364       H368 0.030       .   A
C365       C373 0.037       .   A
C365       C377 0.037       .   A
C366       H370 0.030       .   A
C366       H371 0.030       .   A
C366       H372 0.030       .   A
C373       C374 0.036       .   A
C373       H379 0.029       .   A
C374       C375 0.036       .   A
C374       H378 0.030       .   A
C375       C376 0.036       .   A
C376       C377 0.037       .   A
C376       H381 0.030       .   A
C377       C380 0.042       .   A
C380       C382 0.042       .   A
C380       H386 0.030       .   A
C380       H387 0.030       .   A
C382       H383 0.030       .   A
C382       H384 0.030       .   A
C382       H385 0.030       .   A
C330       C331 0.037       .   A
C330       C335 0.036       .   A
C331       C332 0.037       .   A
C331      Cl338 0.047       .   A
C332       C333 0.037       .   A
C332       C337 0.042       .   A
C333       C334 0.036       .   A
C333       C336 0.037       .   A
C334       C335 0.036       .   A
C334       H340 0.029       .   A
C335       H339 0.030       .   A
C336       C344 0.037       .   A
C336       C348 0.037       .   A
C337       H341 0.030       .   A
C337       H342 0.030       .   A
C337       H343 0.030       .   A
C344       C345 0.036       .   A
C344       H350 0.029       .   A
C345       C346 0.036       .   A
C345       H349 0.030       .   A
C346       C347 0.036       .   A
C347       C348 0.037       .   A
C347       H352 0.030       .   A
C348       C351 0.042       .   A
C351       C353 0.042       .   A
C351       H357 0.030       .   A
C351       H358 0.030       .   A
C353       H354 0.030       .   A
C353       H355 0.030       .   A
C353       H356 0.030       .   A
C301       C302 0.037       .   A
C301       C306 0.036       .   A
C302       C303 0.037       .   A
C302      Cl309 0.047       .   A
C303       C304 0.037       .   A
C303       C308 0.042       .   A
C304       C305 0.036       .   A
C304       C307 0.037       .   A
C305       C306 0.036       .   A
C305       H311 0.029       .   A
C306       H310 0.030       .   A
C307       C315 0.037       .   A
C307       C319 0.037       .   A
C308       H312 0.030       .   A
C308       H313 0.030       .   A
C308       H314 0.030       .   A
C315       C316 0.036       .   A
C315       H321 0.029       .   A
C316       C317 0.036       .   A
C316       H320 0.030       .   A
C317       C318 0.036       .   A
C318       C319 0.037       .   A
C318       H323 0.030       .   A
C319       C322 0.042       .   A
C322       C324 0.042       .   A
C322       H328 0.030       .   A
C322       H329 0.030       .   A
C324       H325 0.030       .   A
C324       H326 0.030       .   A
C324       H327 0.030       .   A
C272       C273 0.037       .   A
C272       C277 0.036       .   A
C273       C274 0.037       .   A
C273      Cl280 0.047       .   A
C274       C275 0.037       .   A
C274       C279 0.042       .   A
C275       C276 0.036       .   A
C275       C278 0.037       .   A
C276       C277 0.036       .   A
C276       H282 0.029       .   A
C277       H281 0.030       .   A
C278       C286 0.037       .   A
C278       C290 0.037       .   A
C279       H283 0.030       .   A
C279       H284 0.030       .   A
C279       H285 0.030       .   A
C286       C287 0.036       .   A
C286       H292 0.029       .   A
C287       C288 0.036       .   A
C287       H291 0.030       .   A
C288       C289 0.036       .   A
C289       C290 0.037       .   A
C289       H294 0.030       .   A
C290       C293 0.042       .   A
C293       C295 0.042       .   A
C293       H299 0.030       .   A
C293       H300 0.030       .   A
C295       H296 0.030       .   A
C295       H297 0.030       .   A
C295       H298 0.030       .   A
C243       C244 0.037       .   A
C243       C248 0.036       .   A
C244       C245 0.037       .   A
C244      Cl251 0.047       .   A
C245       C246 0.037       .   A
C245       C250 0.042       .   A
C246       C247 0.036       .   A
C246       C249 0.037       .   A
C247       C248 0.036       .   A
C247       H253 0.029       .   A
C248       H252 0.030       .   A
C249       C257 0.037       .   A
C249       C261 0.037       .   A
C250       H254 0.030       .   A
C250       H255 0.030       .   A
C250       H256 0.030       .   A
C257       C258 0.036       .   A
C257       H263 0.029       .   A
C258       C259 0.036       .   A
C258       H262 0.030       .   A
C259       C260 0.036       .   A
C260       C261 0.037       .   A
C260       H265 0.030       .   A
C261       C264 0.042       .   A
C264       C266 0.042       .   A
C264       H270 0.030       .   A
C264       H271 0.030       .   A
C266       H267 0.030       .   A
C266       H268 0.030       .   A
C266       H269 0.030       .   A
C214       C215 0.037       .   A
C214       C219 0.036       .   A
C215       C216 0.037       .   A
C215      Cl222 0.047       .   A
C216       C217 0.037       .   A
C216       C221 0.042       .   A
C217       C218 0.036       .   A
C217       C220 0.037       .   A
C218       C219 0.036       .   A
C218       H224 0.029       .   A
C219       H223 0.030       .   A
C220       C228 0.037       .   A
C220       C232 0.037       .   A
C221       H225 0.030       .   A
C221       H226 0.030       .   A
C221       H227 0.030       .   A
C228       C229 0.036       .   A
C228       H234 0.029       .   A
C229       C230 0.036       .   A
C229       H233 0.030       .   A
C230       C231 0.036       .   A
C231       C232 0.037       .   A
C231       H236 0.030       .   A
C232       C235 0.042       .   A
C235       C237 0.042       .   A
C235       H241 0.030       .   A
C235       H242 0.030       .   A
C237       H238 0.030       .   A
C237       H239 0.030       .   A
C237       H240 0.030       .   A
C185       C186 0.037       .   A
C185       C190 0.036       .   A
C186       C187 0.037       .   A
C186      Cl193 0.047       .   A
C187       C188 0.037       .   A
C187       C192 0.042       .   A
C188       C189 0.036       .   A
C188       C191 0.037       .   A
C189       C190 0.036       .   A
C189       H195 0.029       .   A
C190       H194 0.030       .   A
C191       C199 0.037       .   A
C191       C203 0.037       .   A
C192       H196 0.030       .   A
C192       H197 0.030       .   A
C192       H198 0.030       .   A
C199       C200 0.036       .   A
C199       H205 0.029       .   A
C200       C201 0.036       .   A
C200       H204 0.030       .   A
C201       C202 0.036       .   A
C202       C203 0.037       .   A
C202       H207 0.030       .   A
C203       C206 0.042       .   A
C206       C208 0.042       .   A
C206       H212 0.030       .   A
C206       H213 0.030       .   A
C208       H209 0.030       .   A
C208       H210 0.030       .   A
C208       H211 0.030       .   A
