data_pcu_v1-6c_Zn_1_Ch_1-46_fer_tobacco
_audit_creation_date              2021-02-03
_audit_creation_method            'tobacco_3.0'
_symmetry_space_group_name_H-M    'P1'
_symmetry_Int_Tables_number       1
_symmetry_cell_setting            triclinic
loop_
_symmetry_equiv_pos_as_xyz
  x,y,z
_cell_length_a                    34.75635572629727
_cell_length_b                    34.75635572629727
_cell_length_c                    34.75635572629727
_cell_angle_alpha                 90.0
_cell_angle_beta                  90.0
_cell_angle_gamma                 90.0
loop_
_atom_site_label
_atom_site_type_symbol
_atom_site_fract_x
_atom_site_fract_y
_atom_site_fract_z
_atom_site_charge
Zn1       Zn   -0.0322588481    0.0322588481    0.0322588481          1.4972
Zn2       Zn    0.0322588481   -0.0322588481    0.0322588481          1.4936
Zn3       Zn   -0.0322588481   -0.0322588481   -0.0322588481          1.4911
Zn4       Zn    0.0322588481    0.0322588481   -0.0322588481          1.4948
O5         O    0.0000000000    0.0000000000    0.0000000000         -2.2391
O6         O   -0.0237078941    0.0237078941    0.0862173245         -1.1454
O7         O    0.0237078941   -0.0862173245    0.0237078941         -1.1436
O8         O   -0.0862173245   -0.0237078941   -0.0237078941         -1.1388
O9         O    0.0237078941   -0.0237078941    0.0862173245         -1.1456
O10        O   -0.0862173245    0.0237078941    0.0237078941         -1.1416
O11        O   -0.0237078941   -0.0862173245   -0.0237078941         -1.1474
O12        O    0.0237078941    0.0237078941   -0.0862173245         -1.1413
O13        O    0.0862173245   -0.0237078941    0.0237078941         -1.1489
O14        O   -0.0237078941   -0.0237078941   -0.0862173245         -1.1428
O15        O    0.0862173245    0.0237078941   -0.0237078941         -1.1474
O16        O    0.0237078941    0.0862173245   -0.0237078941         -1.1465
O17        O   -0.0237078941    0.0862173245    0.0237078941         -1.1444
C18        C   -0.0000000000    0.0000000000    0.1030833045          0.3735
C19        C    0.0000000000   -0.1030833045   -0.0000000000          0.3784
C20        C   -0.1030833045    0.0000000000    0.0000000000           0.368
C21        C    0.0000000000   -0.0000000000   -0.1030833045          0.3717
C22        C    0.1030833045   -0.0000000000   -0.0000000000          0.3831
C23        C   -0.0000000000    0.1030833045    0.0000000000          0.3736
Zn24      Zn    1.0322588481    0.0322588481    0.5322588481          1.4972
Zn25      Zn    0.9677411519    0.0322588481    0.4677411519          1.4936
Zn26      Zn    1.0322588481   -0.0322588481    0.4677411519          1.4911
Zn27      Zn    0.9677411519   -0.0322588481    0.5322588481          1.4948
O28        O    1.0000000000    0.0000000000    0.5000000000         -2.2391
O29        O    1.0237078941    0.0862173245    0.5237078941         -1.1454
O30        O    0.9762921059    0.0237078941    0.4137826755         -1.1436
O31        O    1.0862173245   -0.0237078941    0.4762921059         -1.1388
O32        O    0.9762921059    0.0862173245    0.4762921059         -1.1456
O33        O    1.0862173245    0.0237078941    0.5237078941         -1.1416
O34        O    1.0237078941   -0.0237078941    0.4137826755         -1.1474
O35        O    0.9762921059   -0.0862173245    0.5237078941         -1.1413
O36        O    0.9137826755    0.0237078941    0.4762921059         -1.1489
O37        O    1.0237078941   -0.0862173245    0.4762921059         -1.1428
O38        O    0.9137826755   -0.0237078941    0.5237078941         -1.1474
O39        O    0.9762921059   -0.0237078941    0.5862173245         -1.1465
O40        O    1.0237078941    0.0237078941    0.5862173245         -1.1444
C41        C    1.0000000000    0.1030833045    0.5000000000          0.3735
C42        C    1.0000000000    0.0000000000    0.3969166955          0.3784
C43        C    1.1030833045    0.0000000000    0.5000000000           0.368
C44        C    1.0000000000   -0.1030833045    0.5000000000          0.3717
C45        C    0.8969166955    0.0000000000    0.5000000000          0.3831
C46        C    1.0000000000    0.0000000000    0.6030833045          0.3736
Zn47      Zn    1.0322588481    0.4677411519   -0.0322588481          1.4972
Zn48      Zn    0.9677411519    0.4677411519    0.0322588481          1.4936
Zn49      Zn    1.0322588481    0.5322588481    0.0322588481          1.4911
Zn50      Zn    0.9677411519    0.5322588481   -0.0322588481          1.4948
O51        O    1.0000000000    0.5000000000    0.0000000000         -2.2391
O52        O    1.0237078941    0.4137826755   -0.0237078941         -1.1454
O53        O    0.9762921059    0.4762921059    0.0862173245         -1.1436
O54        O    1.0862173245    0.5237078941    0.0237078941         -1.1388
O55        O    0.9762921059    0.4137826755    0.0237078941         -1.1456
O56        O    1.0862173245    0.4762921059   -0.0237078941         -1.1416
O57        O    1.0237078941    0.5237078941    0.0862173245         -1.1474
O58        O    0.9762921059    0.5862173245   -0.0237078941         -1.1413
O59        O    0.9137826755    0.4762921059    0.0237078941         -1.1489
O60        O    1.0237078941    0.5862173245    0.0237078941         -1.1428
O61        O    0.9137826755    0.5237078941   -0.0237078941         -1.1474
O62        O    0.9762921059    0.5237078941   -0.0862173245         -1.1465
O63        O    1.0237078941    0.4762921059   -0.0862173245         -1.1444
C64        C    1.0000000000    0.3969166955    0.0000000000          0.3735
C65        C    1.0000000000    0.5000000000    0.1030833045          0.3784
C66        C    1.1030833045    0.5000000000    0.0000000000           0.368
C67        C    1.0000000000    0.6030833045    0.0000000000          0.3717
C68        C    0.8969166955    0.5000000000    0.0000000000          0.3831
C69        C    1.0000000000    0.5000000000   -0.1030833045          0.3736
Zn70      Zn    0.9677411519    0.4677411519    0.5322588481          1.4972
Zn71      Zn    1.0322588481    0.4677411519    0.4677411519          1.4936
Zn72      Zn    0.9677411519    0.5322588481    0.4677411519          1.4911
Zn73      Zn    1.0322588481    0.5322588481    0.5322588481          1.4948
O74        O    1.0000000000    0.5000000000    0.5000000000         -2.2391
O75        O    0.9762921059    0.4137826755    0.5237078941         -1.1454
O76        O    1.0237078941    0.4762921059    0.4137826755         -1.1436
O77        O    0.9137826755    0.5237078941    0.4762921059         -1.1388
O78        O    1.0237078941    0.4137826755    0.4762921059         -1.1456
O79        O    0.9137826755    0.4762921059    0.5237078941         -1.1416
O80        O    0.9762921059    0.5237078941    0.4137826755         -1.1474
O81        O    1.0237078941    0.5862173245    0.5237078941         -1.1413
O82        O    1.0862173245    0.4762921059    0.4762921059         -1.1489
O83        O    0.9762921059    0.5862173245    0.4762921059         -1.1428
O84        O    1.0862173245    0.5237078941    0.5237078941         -1.1474
O85        O    1.0237078941    0.5237078941    0.5862173245         -1.1465
O86        O    0.9762921059    0.4762921059    0.5862173245         -1.1444
C87        C    1.0000000000    0.3969166955    0.5000000000          0.3735
C88        C    1.0000000000    0.5000000000    0.3969166955          0.3784
C89        C    0.8969166955    0.5000000000    0.5000000000           0.368
C90        C    1.0000000000    0.6030833045    0.5000000000          0.3717
C91        C    1.1030833045    0.5000000000    0.5000000000          0.3831
C92        C    1.0000000000    0.5000000000    0.6030833045          0.3736
Zn93      Zn    0.4677411519    0.9677411519   -0.0322588481          1.4972
Zn94      Zn    0.4677411519    1.0322588481    0.0322588481          1.4936
Zn95      Zn    0.5322588481    0.9677411519    0.0322588481          1.4911
Zn96      Zn    0.5322588481    1.0322588481   -0.0322588481          1.4948
O97        O    0.5000000000    1.0000000000    0.0000000000         -2.2391
O98        O    0.4137826755    0.9762921059   -0.0237078941         -1.1454
O99        O    0.4762921059    1.0237078941    0.0862173245         -1.1436
O100       O    0.5237078941    0.9137826755    0.0237078941         -1.1388
O101       O    0.4137826755    1.0237078941    0.0237078941         -1.1456
O102       O    0.4762921059    0.9137826755   -0.0237078941         -1.1416
O103       O    0.5237078941    0.9762921059    0.0862173245         -1.1474
O104       O    0.5862173245    1.0237078941   -0.0237078941         -1.1413
O105       O    0.4762921059    1.0862173245    0.0237078941         -1.1489
O106       O    0.5862173245    0.9762921059    0.0237078941         -1.1428
O107       O    0.5237078941    1.0862173245   -0.0237078941         -1.1474
O108       O    0.5237078941    1.0237078941   -0.0862173245         -1.1465
O109       O    0.4762921059    0.9762921059   -0.0862173245         -1.1444
C110       C    0.3969166955    1.0000000000    0.0000000000          0.3735
C111       C    0.5000000000    1.0000000000    0.1030833045          0.3784
C112       C    0.5000000000    0.8969166955    0.0000000000           0.368
C113       C    0.6030833045    1.0000000000    0.0000000000          0.3717
C114       C    0.5000000000    1.1030833045    0.0000000000          0.3831
C115       C    0.5000000000    1.0000000000   -0.1030833045          0.3736
Zn116     Zn    0.4677411519    1.0322588481    0.5322588481          1.4972
Zn117     Zn    0.4677411519    0.9677411519    0.4677411519          1.4936
Zn118     Zn    0.5322588481    1.0322588481    0.4677411519          1.4911
Zn119     Zn    0.5322588481    0.9677411519    0.5322588481          1.4948
O120       O    0.5000000000    1.0000000000    0.5000000000         -2.2391
O121       O    0.4137826755    1.0237078941    0.5237078941          -1.143
O122       O    0.4762921059    0.9762921059    0.4137826755         -1.1436
O123       O    0.5237078941    1.0862173245    0.4762921059         -1.1388
O124       O    0.4137826755    0.9762921059    0.4762921059         -1.1456
O125       O    0.4762921059    1.0862173245    0.5237078941         -1.1416
O126       O    0.5237078941    1.0237078941    0.4137826755         -1.1474
O127       O    0.5862173245    0.9762921059    0.5237078941         -1.1413
O128       O    0.4762921059    0.9137826755    0.4762921059         -1.1489
O129       O    0.5862173245    1.0237078941    0.4762921059         -1.1428
O130       O    0.5237078941    0.9137826755    0.5237078941         -1.1474
O131       O    0.5237078941    0.9762921059    0.5862173245         -1.1465
O132       O    0.4762921059    1.0237078941    0.5862173245         -1.1444
C133       C    0.3969166955    1.0000000000    0.5000000000          0.3735
C134       C    0.5000000000    1.0000000000    0.3969166955          0.3784
C135       C    0.5000000000    1.1030833045    0.5000000000           0.368
C136       C    0.6030833045    1.0000000000    0.5000000000          0.3717
C137       C    0.5000000000    0.8969166955    0.5000000000          0.3831
C138       C    0.5000000000    1.0000000000    0.6030833045          0.3736
Zn139     Zn    0.4677411519    0.5322588481   -0.0322588481          1.4972
Zn140     Zn    0.4677411519    0.4677411519    0.0322588481          1.4936
Zn141     Zn    0.5322588481    0.4677411519   -0.0322588481          1.4911
Zn142     Zn    0.5322588481    0.5322588481    0.0322588481          1.4948
O143       O    0.5000000000    0.5000000000    0.0000000000         -2.2391
O144       O    0.4137826755    0.5237078941   -0.0237078941         -1.1454
O145       O    0.4762921059    0.4137826755    0.0237078941         -1.1436
O146       O    0.5237078941    0.4762921059   -0.0862173245         -1.1388
O147       O    0.4137826755    0.4762921059    0.0237078941         -1.1456
O148       O    0.4762921059    0.5237078941   -0.0862173245         -1.1416
O149       O    0.5237078941    0.4137826755   -0.0237078941         -1.1474
O150       O    0.5862173245    0.5237078941    0.0237078941         -1.1413
O151       O    0.4762921059    0.4762921059    0.0862173245         -1.1489
O152       O    0.5862173245    0.4762921059   -0.0237078941         -1.1428
O153       O    0.5237078941    0.5237078941    0.0862173245         -1.1474
O154       O    0.5237078941    0.5862173245    0.0237078941         -1.1465
O155       O    0.4762921059    0.5862173245   -0.0237078941         -1.1444
C156       C    0.3969166955    0.5000000000    0.0000000000          0.3735
C157       C    0.5000000000    0.3969166955    0.0000000000          0.3784
C158       C    0.5000000000    0.5000000000   -0.1030833045           0.368
C159       C    0.6030833045    0.5000000000    0.0000000000          0.3717
C160       C    0.5000000000    0.5000000000    0.1030833045          0.3831
C161       C    0.5000000000    0.6030833045    0.0000000000          0.3736
Zn162     Zn    0.4677411519    0.5322588481    0.5322588481          1.4972
Zn163     Zn    0.4677411519    0.4677411519    0.4677411519          1.4936
Zn164     Zn    0.5322588481    0.5322588481    0.4677411519          1.4911
Zn165     Zn    0.5322588481    0.4677411519    0.5322588481          1.4948
O166       O    0.5000000000    0.5000000000    0.5000000000         -2.2391
O167       O    0.4137826755    0.5237078941    0.5237078941         -1.1454
O168       O    0.4762921059    0.4762921059    0.4137826755         -1.1436
O169       O    0.5237078941    0.5862173245    0.4762921059         -1.1388
O170       O    0.4137826755    0.4762921059    0.4762921059         -1.1456
O171       O    0.4762921059    0.5862173245    0.5237078941         -1.1416
O172       O    0.5237078941    0.5237078941    0.4137826755         -1.1474
O173       O    0.5862173245    0.4762921059    0.5237078941         -1.1413
O174       O    0.4762921059    0.4137826755    0.4762921059         -1.1489
O175       O    0.5862173245    0.5237078941    0.4762921059         -1.1428
O176       O    0.5237078941    0.4137826755    0.5237078941         -1.1474
O177       O    0.5237078941    0.4762921059    0.5862173245         -1.1465
O178       O    0.4762921059    0.5237078941    0.5862173245         -1.1444
C179       C    0.3969166955    0.5000000000    0.5000000000          0.3735
C180       C    0.5000000000    0.5000000000    0.3969166955          0.3784
C181       C    0.5000000000    0.6030833045    0.5000000000           0.368
C182       C    0.6030833045    0.5000000000    0.5000000000          0.3717
C183       C    0.5000000000    0.3969166955    0.5000000000          0.3831
C184       C    0.5000000000    0.5000000000    0.6030833045          0.3736
C668       C    0.5000000000    0.5000000000   -0.1473917473         -0.3961
C669       C    0.5284203809    0.4829637849   -0.1688328324          -0.383
C670       C    0.5288233650    0.4832712974   -0.2084681541          -0.385
C671       C    0.5017868511    0.5004747237   -0.2312362151            -0.4
C672       C    0.4730693444    0.5158294494   -0.2093803534          0.5883
C673       C    0.4722352061    0.5152162631   -0.1699924200          0.5905
C674       C    0.5041461736    0.5071794894   -0.2784635135          0.5927
Br675     Br    0.5705699078    0.4575520858   -0.2328127920         -0.3649
Cl676     Cl    0.5657393136    0.4585155218   -0.1461669435         -0.3621
H677       H    0.4481282764    0.5291039107   -0.1556630130          0.5797
Cl678     Cl    0.4351407571    0.5387521196   -0.2318682369          0.5686
C679       C    0.4813319211    0.4856983276   -0.3124278619         -0.3917
C680       C    0.5000000000    0.5000000000   -0.3526082527          0.5953
N681       N    0.5406526151    0.4999510638   -0.3395802627          0.5962
N682       N    0.5426565786    0.5091538826   -0.2976234391          0.5906
H683       H    0.5554025048    0.5354267611   -0.2952747940          0.5697
H684       H    0.5519983232    0.4729727835   -0.3415348244          -0.382
H685       H    0.4506637857    0.4924029798   -0.3113740099         -0.3973
H686       H    0.4916085015    0.5300405354   -0.3566495590          0.5709
H687       H    0.4847657531    0.4545943970   -0.3095303206         -0.3665
H688       H    0.4940071031    0.5367892652   -0.2815686901          0.5686
C647       C    0.5000000000    0.5000000000    0.3526082527         -0.3961
C648       C    0.4715796191    0.5170362151    0.3311671676          -0.383
C649       C    0.4711766350    0.5167287026    0.2915318459          -0.385
C650       C    0.4982131489    0.4995252763    0.2687637849            -0.4
C651       C    0.5269306556    0.4841705506    0.2906196466          0.5883
C652       C    0.5277647939    0.4847837369    0.3300075800          0.5905
C653       C    0.4958538264    0.4928205106    0.2215364865          0.5927
Br654     Br    0.4294300922    0.5424479142    0.2671872080         -0.3649
Cl655     Cl    0.4342606864    0.5414844782    0.3538330565         -0.3621
H656       H    0.5518717236    0.4708960893    0.3443369870          0.5797
Cl657     Cl    0.5648592429    0.4612478804    0.2681317631          0.5686
C658       C    0.5186680789    0.5143016724    0.1875721381         -0.3917
C659       C    0.5000000000    0.5000000000    0.1473917473          0.5953
N660       N    0.4593473849    0.5000489362    0.1604197373          0.5962
N661       N    0.4573434214    0.4908461174    0.2023765609          0.5906
H662       H    0.4445974952    0.4645732389    0.2047252060          0.5697
H663       H    0.4480016768    0.5270272165    0.1584651756          -0.382
H664       H    0.5493362143    0.5075970202    0.1886259901         -0.3973
H665       H    0.5083914985    0.4699594646    0.1433504410          0.5709
H666       H    0.5152342469    0.5454056030    0.1904696794         -0.3665
H667       H    0.5059928969    0.4632107348    0.2184313099          0.5686
C626       C    0.5000000000    0.8526082527    0.5000000000         -0.3961
C627       C    0.4844519976    0.8311671676    0.5292610714          -0.383
C628       C    0.4847798816    0.7915318459    0.5296476619          -0.385
C629       C    0.5005662343    0.7687637849    0.5017599938            -0.4
C630       C    0.5144196626    0.7906196466    0.4722889009          0.5883
C631       C    0.5137642782    0.8300075800    0.4714874924          0.5905
C632       C    0.5073837422    0.7215364865    0.5037704343          0.5927
Br633     Br    0.4612476219    0.7671872080    0.5726649193         -0.3649
Cl634     Cl    0.4619606780    0.8538330565    0.5677910707         -0.3621
H635       H    0.5263903328    0.8443369870    0.4466964949          0.5797
Cl636     Cl    0.5353559810    0.7681317631    0.4332287280          0.5686
C637       C    0.4847547030    0.6875721381    0.4820942489         -0.3917
C638       C    0.5000000000    0.6473917473    0.5000000000          0.5953
N639       N    0.5020474524    0.6604197373    0.5406010523          0.5962
N640       N    0.5113413652    0.7023765609    0.5421277901          0.5906
H641       H    0.5382365550    0.7047252060    0.5535019514          0.5697
H642       H    0.4756901267    0.6584651756    0.5533228479          -0.382
H643       H    0.4898689787    0.6886259901    0.4511211788         -0.3973
H644       H    0.5295678456    0.6433504410    0.4900705730          0.5709
H645       H    0.4538692262    0.6904696794    0.4871274412         -0.3665
H646       H    0.5364312846    0.7184313099    0.4921179732          0.5686
C605       C    0.5000000000    1.1473917473    0.5000000000         -0.3961
C606       C    0.4715796191    1.1688328324    0.5170362151          -0.383
C607       C    0.4711766350    1.2084681541    0.5167287026          -0.385
C608       C    0.4982131489    1.2312362151    0.4995252763            -0.4
C609       C    0.5269306556    1.2093803534    0.4841705506          0.5883
C610       C    0.5277647939    1.1699924200    0.4847837369          0.5905
C611       C    0.4958538264    1.2784635135    0.4928205106          0.5927
Br612     Br    0.4294300922    1.2328127920    0.5424479142         -0.3649
Cl613     Cl    0.4342606864    1.1461669435    0.5414844782         -0.3621
H614       H    0.5518717236    1.1556630130    0.4708960893          0.5797
Cl615     Cl    0.5648592429    1.2318682369    0.4612478804          0.5686
C616       C    0.5186680789    1.3124278619    0.5143016724         -0.3917
C617       C    0.5000000000    1.3526082527    0.5000000000          0.5953
N618       N    0.4593473849    1.3395802627    0.5000489362          0.5962
N619       N    0.4573434214    1.2976234391    0.4908461174          0.5906
H620       H    0.4445974952    1.2952747940    0.4645732389          0.5697
H621       H    0.4480016768    1.3415348244    0.5270272165          -0.382
H622       H    0.5493362143    1.3113740099    0.5075970202         -0.3973
H623       H    0.5083914985    1.3566495590    0.4699594646          0.5709
H624       H    0.5152342469    1.3095303206    0.5454056030         -0.3665
H625       H    0.5059928969    1.2815686901    0.4632107348          0.5686
C584       C    0.5000000000    0.8526082527    0.0000000000         -0.3961
C585       C    0.5319100827    0.8311671676    0.0089273345          -0.383
C586       C    0.5322175677    0.7915318459    0.0085243295          -0.385
C587       C    0.5015980876    0.7687637849   -0.0009296857            -0.4
C588       C    0.4698454136    0.7906196466   -0.0081567517          0.5883
C589       C    0.4692027876    0.8300075800   -0.0073450768          0.5905
C590       C    0.5021033161    0.7215364865   -0.0080194691          0.5927
Br591     Br    0.5792735751    0.7671872080    0.0223077920         -0.3649
Cl592     Cl    0.5743600267    0.8538330565    0.0226540441         -0.3621
H593       H    0.4422844376    0.8443369870   -0.0143745325          0.5797
Cl594     Cl    0.4272102772    0.7681317631   -0.0202510348          0.5686
C595       C    0.4857707366    0.6875721381    0.0187233294         -0.3917
C596       C    0.5000000000    0.6473917473    0.0000000000          0.5953
N597       N    0.5392227858    0.6604197373   -0.0106869349          0.5962
N598       N    0.5387256676    0.7023765609   -0.0200922854          0.5906
H599       H    0.5440820125    0.7047252060   -0.0487982490          0.5697
H600       H    0.5572893275    0.6584651756    0.0123381117          -0.382
H601       H    0.4544206729    0.6886259901    0.0203544025         -0.3973
H602       H    0.4839742495    0.6433504410   -0.0267586685          0.5709
H603       H    0.4972955514    0.6904696794    0.0478167023         -0.3665
H604       H    0.4845057546    0.7184313099   -0.0339012272          0.5686
C563       C    0.5000000000    1.1473917473    0.0000000000         -0.3961
C564       C    0.4975813406    1.1688328324    0.0330469479          -0.383
C565       C    0.4970979621    1.2084681541    0.0331996090          -0.385
C566       C    0.4985836179    1.2312362151    0.0011883018            -0.4
C567       C    0.5025485084    1.2093803534   -0.0311341739          0.5883
C568       C    0.5035299698    1.1699924200   -0.0314635942          0.5905
C569       C    0.4917423654    1.2784635135   -0.0007397929          0.5927
Br570     Br    0.4941134825    1.2328127920    0.0821418664         -0.3649
Cl571     Cl    0.4961049051    1.1461669435    0.0776366378         -0.3621
H572       H    0.5060419536    1.1556630130   -0.0591710074          0.5797
Cl573     Cl    0.5056234903    1.2318682369   -0.0753447046          0.5686
C574       C    0.5224383428    1.3124278619   -0.0070395862         -0.3917
C575       C    0.5000000000    1.3526082527    0.0000000000          0.5953
N576       N    0.4766494978    1.3395802627    0.0332774932          0.5962
N577       N    0.4679695794    1.2976234391    0.0296214351          0.5906
H578       H    0.4391475786    1.2952747940    0.0249294153          0.5697
H579       H    0.4921866982    1.3415348244    0.0580796726          -0.382
H580       H    0.5346003797    1.3113740099   -0.0359804180         -0.3973
H581       H    0.4802584336    1.3566495590   -0.0241479103          0.5709
H582       H    0.5459021695    1.3095303206    0.0136653538         -0.3665
H583       H    0.4733586231    1.2815686901   -0.0260691750          0.5686
C542       C    0.5000000000    1.0000000000   -0.3526082527         -0.3961
C543       C    0.4829637849    1.0284203809   -0.3311671676          -0.383
C544       C    0.4832712974    1.0288233650   -0.2915318459          -0.385
C545       C    0.5004747237    1.0017868511   -0.2687637849            -0.4
C546       C    0.5158294494    0.9730693444   -0.2906196466          0.5883
C547       C    0.5152162631    0.9722352061   -0.3300075800          0.5905
C548       C    0.5071794894    1.0041461736   -0.2215364865          0.5927
Br549     Br    0.4575520858    1.0705699078   -0.2671872080         -0.3649
Cl550     Cl    0.4585155218    1.0657393136   -0.3538330565         -0.3621
H551       H    0.5291039107    0.9481282764   -0.3443369870          0.5797
Cl552     Cl    0.5387521196    0.9351407571   -0.2681317631          0.5686
C553       C    0.4856983276    0.9813319211   -0.1875721381         -0.3917
C554       C    0.5000000000    1.0000000000   -0.1473917473          0.5953
N555       N    0.4999510638    1.0406526151   -0.1604197373          0.5962
N556       N    0.5091538826    1.0426565786   -0.2023765609          0.5906
H557       H    0.5354267611    1.0554025048   -0.2047252060          0.5697
H558       H    0.4729727835    1.0519983232   -0.1584651756          -0.382
H559       H    0.4924029798    0.9506637857   -0.1886259901         -0.3973
H560       H    0.5300405354    0.9916085015   -0.1433504410          0.5709
H561       H    0.4545943970    0.9847657531   -0.1904696794         -0.3665
H562       H    0.5367892652    0.9940071031   -0.2184313099          0.5686
C521       C    0.5000000000    1.0000000000    0.3526082527         -0.3961
C522       C    0.4715796191    1.0170362151    0.3311671676          -0.383
C523       C    0.4711766350    1.0167287026    0.2915318459          -0.385
C524       C    0.4982131489    0.9995252763    0.2687637849            -0.4
C525       C    0.5269306556    0.9841705506    0.2906196466          0.5883
C526       C    0.5277647939    0.9847837369    0.3300075800          0.5905
C527       C    0.4958538264    0.9928205106    0.2215364865          0.5927
Br528     Br    0.4294300922    1.0424479142    0.2671872080         -0.3649
Cl529     Cl    0.4342606864    1.0414844782    0.3538330565         -0.3621
H530       H    0.5518717236    0.9708960893    0.3443369870          0.5797
Cl531     Cl    0.5648592429    0.9612478804    0.2681317631          0.5686
C532       C    0.5186680789    1.0143016724    0.1875721381         -0.3917
C533       C    0.5000000000    1.0000000000    0.1473917473          0.5953
N534       N    0.4593473849    1.0000489362    0.1604197373          0.5962
N535       N    0.4573434214    0.9908461174    0.2023765609          0.5906
H536       H    0.4445974952    0.9645732389    0.2047252060          0.5697
H537       H    0.4480016768    1.0270272165    0.1584651756          -0.382
H538       H    0.5493362143    1.0075970202    0.1886259901         -0.3973
H539       H    0.5083914985    0.9699594646    0.1433504410          0.5709
H540       H    0.5152342469    1.0454056030    0.1904696794         -0.3665
H541       H    0.5059928969    0.9632107348    0.2184313099          0.5686
C500       C    0.8526082527    0.5000000000    0.5000000000         -0.3961
C501       C    0.8311671676    0.4837029909    0.5288506182          -0.383
C502       C    0.7915318459    0.4832007062    0.5287822791          -0.385
C503       C    0.7687637849    0.4982118475    0.5004697977            -0.4
C504       C    0.7906196466    0.5155977397    0.4729344833          0.5883
C505       C    0.8300075800    0.5166258949    0.4730556488          0.5905
C506       C    0.7215364865    0.4928487500    0.4958053072          0.5927
Br507     Br    0.7671872080    0.4596053018    0.5717649334         -0.3649
Cl508     Cl    0.8538330565    0.4633296570    0.5685412667         -0.3621
H509       H    0.8443369870    0.5307274996    0.4490732478          0.5797
Cl510     Cl    0.7681317631    0.5372547004    0.4342692199          0.5686
C511       C    0.6875721381    0.5232959354    0.5032147154         -0.3917
C512       C    0.6473917473    0.5000000000    0.5000000000          0.5953
N513       N    0.6604197373    0.4646765580    0.5201219271          0.5962
N514       N    0.7023765609    0.4583885936    0.5131098484          0.5906
H515       H    0.7047252060    0.4343291059    0.4965610168          0.5697
H516       H    0.6584651756    0.4681366886    0.5491835891          -0.382
H517       H    0.6886259901    0.5466504020    0.4822372088         -0.3973
H518       H    0.6433504410    0.4924586452    0.4697348553          0.5709
H519       H    0.6904696794    0.5356732395    0.5319557670         -0.3665
H520       H    0.7184313099    0.4870396795    0.4650515388          0.5686
C479       C    1.1473917473    0.5000000000    0.5000000000         -0.3961
C480       C    1.1688328324    0.5328587000    0.5042727636          -0.383
C481       C    1.2084681541    0.5331053995    0.5038299324          -0.385
C482       C    1.2312362151    0.5014487297    0.4988513566            -0.4
C483       C    1.2093803534    0.4689889428    0.4962388818          0.5883
C484       C    1.1699924200    0.4684689821    0.4971341052          0.5905
C485       C    1.2784635135    0.5009349958    0.4917621844          0.5927
Br486     Br    1.2328127920    0.5816487656    0.5107432015         -0.3649
Cl487     Cl    1.1461669435    0.5768352191    0.5117884856         -0.3621
H488       H    1.1556630130    0.4408220985    0.4940259484          0.5797
Cl489     Cl    1.2318682369    0.4250625557    0.4903652923          0.5686
C490       C    1.3124278619    0.4885942110    0.5205655776         -0.3917
C491       C    1.3526082527    0.5000000000    0.5000000000          0.5953
N492       N    1.3395802627    0.5372916069    0.4838144027          0.5962
N493       N    1.2976234391    0.5354547225    0.4745767840          0.5906
H494       H    1.2952747940    0.5366513499    0.4453998948          0.5697
H495       H    1.3415348244    0.5584648581    0.5040195044          -0.382
H496       H    1.3113740099    0.4577995259    0.5266626469         -0.3973
H497       H    1.3566495590    0.4803126971    0.4758078294          0.5709
H498       H    1.3095303206    0.5041606698    0.5477120518         -0.3665
H499       H    1.2815686901    0.4798174233    0.4686626669          0.5686
C458       C    0.8526082527    0.5000000000    0.0000000000         -0.3961
C459       C    0.8311671676    0.5146355428   -0.0297279593          -0.383
C460       C    0.7915318459    0.5151408935   -0.0296881998          -0.385
C461       C    0.7687637849    0.5017586495   -0.0005703958            -0.4
C462       C    0.7906196466    0.4859614220    0.0279060927          0.5883
C463       C    0.8300075800    0.4849280520    0.0278433983          0.5905
C464       C    0.7215364865    0.5073775106    0.0037826130          0.5927
Br465     Br    0.7671872080    0.5362620879   -0.0739391526         -0.3649
Cl466     Cl    0.8538330565    0.5327264390   -0.0705095701         -0.3621
H467       H    0.8443369870    0.4722084514    0.0525865301          0.5797
Cl468     Cl    0.7681317631    0.4665308433    0.0677367235          0.5686
C469       C    0.6875721381    0.4765593042   -0.0018891226         -0.3917
C470       C    0.6473917473    0.5000000000    0.0000000000          0.5953
N471       N    0.6604197373    0.5341261346   -0.0220917280          0.5962
N472       N    0.7023765609    0.5408014382   -0.0154473269          0.5906
H473       H    0.7047252060    0.5657602428   -0.0002888029          0.5697
H474       H    0.6584651756    0.5290243377   -0.0509105477          -0.382
H475       H    0.6886259901    0.4544313981    0.0203784021         -0.3973
H476       H    0.6433504410    0.5092446738    0.0297890420          0.5709
H477       H    0.6904696794    0.4625728418   -0.0298824177         -0.3665
H478       H    0.7184313099    0.5149203805    0.0341576799          0.5686
C437       C    1.1473917473    0.5000000000    0.0000000000         -0.3961
C438       C    1.1688328324    0.5328197063   -0.0045626263          -0.383
C439       C    1.2084681541    0.5329406095   -0.0050549093          -0.385
C440       C    1.2312362151    0.5010936772   -0.0014906608            -0.4
C441       C    1.2093803534    0.4690974630    0.0045678102          0.5883
C442       C    1.1699924200    0.4688325658    0.0055686167          0.5905
C443       C    1.2784635135    0.4987247682   -0.0081920454          0.5927
Br444     Br    1.2328127920    0.5815851824   -0.0112158510         -0.3649
Cl445     Cl    1.1461669435    0.5772189952   -0.0089356629         -0.3621
H446       H    1.1556630130    0.4413471606    0.0098771329          0.5797
Cl447     Cl    1.2318682369    0.4251804863    0.0105113522          0.5686
C448       C    1.3124278619    0.4944345101    0.0228486394         -0.3917
C449       C    1.3526082527    0.5000000000    0.0000000000          0.5953
N450       N    1.3395802627    0.5316885382   -0.0254651537          0.5962
N451       N    1.2976234391    0.5274757526   -0.0338889404          0.5906
H452       H    1.2952747940    0.5209193320   -0.0623448032          0.5697
H453       H    1.3415348244    0.5574486215   -0.0115737605          -0.382
H454       H    1.3113740099    0.4663458528    0.0368669925         -0.3973
H455       H    1.3566495590    0.4746193853   -0.0181294075          0.5709
H456       H    1.3095303206    0.5166215060    0.0449163289         -0.3665
H457       H    1.2815686901    0.4722534838   -0.0248896702          0.5686
C416       C    1.0000000000    0.5000000000   -0.1473917473         -0.3961
C417       C    1.0284203809    0.4829637849   -0.1688328324          -0.383
C418       C    1.0288233650    0.4832712974   -0.2084681541          -0.385
C419       C    1.0017868511    0.5004747237   -0.2312362151            -0.4
C420       C    0.9730693444    0.5158294494   -0.2093803534          0.5883
C421       C    0.9722352061    0.5152162631   -0.1699924200          0.5905
C422       C    1.0041461736    0.5071794894   -0.2784635135          0.5927
Br423     Br    1.0705699078    0.4575520858   -0.2328127920         -0.3649
Cl424     Cl    1.0657393136    0.4585155218   -0.1461669435         -0.3621
H425       H    0.9481282764    0.5291039107   -0.1556630130          0.5797
Cl426     Cl    0.9351407571    0.5387521196   -0.2318682369          0.5686
C427       C    0.9813319211    0.4856983276   -0.3124278619         -0.3917
C428       C    1.0000000000    0.5000000000   -0.3526082527          0.5953
N429       N    1.0406526151    0.4999510638   -0.3395802627          0.5962
N430       N    1.0426565786    0.5091538826   -0.2976234391          0.5906
H431       H    1.0554025048    0.5354267611   -0.2952747940          0.5697
H432       H    1.0519983232    0.4729727835   -0.3415348244          -0.382
H433       H    0.9506637857    0.4924029798   -0.3113740099         -0.3973
H434       H    0.9916085015    0.5300405354   -0.3566495590          0.5709
H435       H    0.9847657531    0.4545943970   -0.3095303206         -0.3665
H436       H    0.9940071031    0.5367892652   -0.2815686901          0.5686
C395       C    1.0000000000    0.5000000000    0.3526082527         -0.3961
C396       C    1.0284203809    0.4829637849    0.3311671676          -0.383
C397       C    1.0288233650    0.4832712974    0.2915318459          -0.385
C398       C    1.0017868511    0.5004747237    0.2687637849            -0.4
C399       C    0.9730693444    0.5158294494    0.2906196466          0.5883
C400       C    0.9722352061    0.5152162631    0.3300075800          0.5905
C401       C    1.0041461736    0.5071794894    0.2215364865          0.5927
Br402     Br    1.0705699078    0.4575520858    0.2671872080         -0.3649
Cl403     Cl    1.0657393136    0.4585155218    0.3538330565         -0.3621
H404       H    0.9481282764    0.5291039107    0.3443369870          0.5797
Cl405     Cl    0.9351407571    0.5387521196    0.2681317631          0.5686
C406       C    0.9813319211    0.4856983276    0.1875721381         -0.3917
C407       C    1.0000000000    0.5000000000    0.1473917473          0.5953
N408       N    1.0406526151    0.4999510638    0.1604197373          0.5962
N409       N    1.0426565786    0.5091538826    0.2023765609          0.5906
H410       H    1.0554025048    0.5354267611    0.2047252060          0.5697
H411       H    1.0519983232    0.4729727835    0.1584651756          -0.382
H412       H    0.9506637857    0.4924029798    0.1886259901         -0.3973
H413       H    0.9916085015    0.5300405354    0.1433504410          0.5709
H414       H    0.9847657531    0.4545943970    0.1904696794         -0.3665
H415       H    0.9940071031    0.5367892652    0.2184313099          0.5686
C374       C    1.0000000000   -0.1473917473    0.5000000000         -0.3961
C375       C    1.0284203809   -0.1688328324    0.5170362151          -0.383
C376       C    1.0288233650   -0.2084681541    0.5167287026          -0.385
C377       C    1.0017868511   -0.2312362151    0.4995252763            -0.4
C378       C    0.9730693444   -0.2093803534    0.4841705506          0.5883
C379       C    0.9722352061   -0.1699924200    0.4847837369          0.5905
C380       C    1.0041461736   -0.2784635135    0.4928205106          0.5927
Br381     Br    1.0705699078   -0.2328127920    0.5424479142         -0.3649
Cl382     Cl    1.0657393136   -0.1461669435    0.5414844782         -0.3621
H383       H    0.9481282764   -0.1556630130    0.4708960893          0.5797
Cl384     Cl    0.9351407571   -0.2318682369    0.4612478804          0.5686
C385       C    0.9813319211   -0.3124278619    0.5143016724         -0.3917
C386       C    1.0000000000   -0.3526082527    0.5000000000          0.5953
N387       N    1.0406526151   -0.3395802627    0.5000489362          0.5962
N388       N    1.0426565786   -0.2976234391    0.4908461174          0.5906
H389       H    1.0554025048   -0.2952747940    0.4645732389          0.5697
H390       H    1.0519983232   -0.3415348244    0.5270272165          -0.382
H391       H    0.9506637857   -0.3113740099    0.5075970202         -0.3973
H392       H    0.9916085015   -0.3566495590    0.4699594646          0.5709
H393       H    0.9847657531   -0.3095303206    0.5454056030         -0.3665
H394       H    0.9940071031   -0.2815686901    0.4632107348          0.5686
C353       C    1.0000000000    0.3526082527    0.5000000000         -0.3961
C354       C    1.0284203809    0.3311671676    0.5170362151          -0.383
C355       C    1.0288233650    0.2915318459    0.5167287026          -0.385
C356       C    1.0017868511    0.2687637849    0.4995252763            -0.4
C357       C    0.9730693444    0.2906196466    0.4841705506          0.5883
C358       C    0.9722352061    0.3300075800    0.4847837369          0.5905
C359       C    1.0041461736    0.2215364865    0.4928205106          0.5927
Br360     Br    1.0705699078    0.2671872080    0.5424479142         -0.3649
Cl361     Cl    1.0657393136    0.3538330565    0.5414844782         -0.3621
H362       H    0.9481282764    0.3443369870    0.4708960893          0.5797
Cl363     Cl    0.9351407571    0.2681317631    0.4612478804          0.5686
C364       C    0.9813319211    0.1875721381    0.5143016724         -0.3917
C365       C    1.0000000000    0.1473917473    0.5000000000          0.5953
N366       N    1.0406526151    0.1604197373    0.5000489362          0.5962
N367       N    1.0426565786    0.2023765609    0.4908461174          0.5906
H368       H    1.0554025048    0.2047252060    0.4645732389          0.5697
H369       H    1.0519983232    0.1584651756    0.5270272165          -0.382
H370       H    0.9506637857    0.1886259901    0.5075970202         -0.3973
H371       H    0.9916085015    0.1433504410    0.4699594646          0.5709
H372       H    0.9847657531    0.1904696794    0.5454056030         -0.3665
H373       H    0.9940071031    0.2184313099    0.4632107348          0.5686
C332       C    0.6473917473   -0.0000000000    0.5000000000         -0.3961
C333       C    0.6688328324   -0.0204934492    0.5260378420          -0.383
C334       C    0.7084681541   -0.0202393663    0.5264764785          -0.385
C335       C    0.7312362151    0.0002449498    0.5018325389            -0.4
C336       C    0.7093803534    0.0191079830    0.4752873177          0.5883
C337       C    0.6699924200    0.0186052034    0.4743823332          0.5905
C338       C    0.7784635135    0.0065975321    0.5050207961          0.5927
Br339     Br    0.7328127920   -0.0510313123    0.5646354583         -0.3649
Cl340     Cl    0.6461669435   -0.0494647405    0.5599654795         -0.3621
H341       H    0.6556630130    0.0354298890    0.4522251500          0.5797
Cl342     Cl    0.7318682369    0.0466430250    0.4405619955          0.5686
C343       C    0.8124278619   -0.0118261168    0.4796732205         -0.3917
C344       C    0.8526082527   -0.0000000000    0.5000000000          0.5953
N345       N    0.8395802627   -0.0051894181    0.5403200626          0.5962
N346       N    0.7976234391    0.0036861009    0.5434717141          0.5906
H347       H    0.7952747940    0.0281362250    0.5594377471          0.5697
H348       H    0.8415348244   -0.0333858764    0.5481630492          -0.382
H349       H    0.8113740099   -0.0012970395    0.4500991539         -0.3973
H350       H    0.8566495590    0.0308605440    0.4954747549          0.5709
H351       H    0.8095303206   -0.0431145791    0.4791461244         -0.3665
H352       H    0.7815686901    0.0372517702    0.4987075355          0.5686
C311       C    1.3526082527   -0.0000000000    0.5000000000         -0.3961
C312       C    1.3311671676    0.0004718532    0.5331319790          -0.383
C313       C    1.2915318459    0.0000036257    0.5333262036          -0.385
C314       C    1.2687637849   -0.0013073825    0.5013072683            -0.4
C315       C    1.2906196466   -0.0001757275    0.4687621896          0.5883
C316       C    1.3300075800    0.0007732748    0.4683484520          0.5905
C317       C    1.2215364865   -0.0082906896    0.4999829921          0.5927
Br318     Br    1.2671872080    0.0012976959    0.5823422934         -0.3649
Cl319     Cl    1.3538330565    0.0028887324    0.5776805929         -0.3621
H320       H    1.3443369870    0.0008599348    0.4405275372          0.5797
Cl321     Cl    1.2681317631   -0.0009670896    0.4244519167          0.5686
C322       C    1.1875721381    0.0217391261    0.4910308641         -0.3917
C323       C    1.1473917473   -0.0000000000    0.5000000000          0.5953
N324       N    1.1604197373   -0.0203601775    0.5351866548          0.5962
N325       N    1.2023765609   -0.0293258065    0.5323013055          0.5906
H326       H    1.2047252060   -0.0584471376    0.5301400903          0.5697
H327       H    1.1584651756   -0.0027196889    0.5585397245          -0.382
H328       H    1.1886259901    0.0313315509    0.4611398575         -0.3973
H329       H    1.1433504410   -0.0217717993    0.4776652788          0.5709
H330       H    1.1904696794    0.0469188246    0.5096111894         -0.3665
H331       H    1.2184313099   -0.0288128458    0.4763529122          0.5686
C290       C    0.0000000000   -0.3526082527    0.0000000000         -0.3961
C291       C   -0.0087036805   -0.3311671676    0.0319718098          -0.383
C292       C   -0.0092073498   -0.2915318459    0.0320290582          -0.385
C293       C   -0.0016177646   -0.2687637849    0.0008950068            -0.4
C294       C    0.0084647531   -0.2906196466   -0.0300695799          0.5883
C295       C    0.0094911397   -0.3300075800   -0.0302049120          0.5905
C296       C   -0.0079630437   -0.2215364865   -0.0023077605          0.5927
Br297     Br   -0.0215109573   -0.2671872080    0.0794934967         -0.3649
Cl298     Cl   -0.0186934760   -0.3538330565    0.0754531195         -0.3621
H299       H    0.0172636838   -0.3443369870   -0.0569181741          0.5797
Cl300     Cl    0.0199508737   -0.2681317631   -0.0728725655          0.5686
C301       C    0.0233712542   -0.1875721381   -0.0026114136         -0.3917
C302       C   -0.0000000000   -0.1473917473    0.0000000000          0.5953
N303       N   -0.0292921260   -0.1604197373    0.0281888074          0.5962
N304       N   -0.0371110542   -0.2023765609    0.0229378927          0.5906
H305       H   -0.0645007036   -0.2047252060    0.0128121885          0.5697
H306       H   -0.0187932012   -0.1584651756    0.0555077620          -0.382
H307       H    0.0408514279   -0.1886259901   -0.0286868890         -0.3973
H308       H   -0.0147507648   -0.1433504410   -0.0274821024          0.5709
H309       H    0.0424348267   -0.1904696794    0.0222044263         -0.3665
H310       H   -0.0211548259   -0.2184313099   -0.0306893823          0.5686
C269       C    0.0000000000    0.3526082527    0.0000000000         -0.3961
C270       C    0.0328087503    0.3311671676    0.0046407521          -0.383
C271       C    0.0330603973    0.2915318459    0.0042007135          -0.385
C272       C    0.0014615119    0.2687637849   -0.0011323350            -0.4
C273       C   -0.0309669577    0.2906196466   -0.0041084318          0.5883
C274       C   -0.0314969188    0.3300075800   -0.0032190919          0.5905
C275       C    0.0010272606    0.2215364865   -0.0082268195          0.5927
Br276     Br    0.0815232356    0.2671872080    0.0116575878         -0.3649
Cl277     Cl    0.0766982767    0.3538330565    0.0126488595         -0.3621
H278       H   -0.0591072321    0.3443369870   -0.0066369001          0.5797
Cl279     Cl   -0.0748247591    0.2681317631   -0.0104739480          0.5686
C280       C   -0.0116355569    0.1875721381    0.0204364580         -0.3917
C281       C   -0.0000000000    0.1473917473    0.0000000000          0.5953
N282       N    0.0374706615    0.1604197373   -0.0157666431          0.5962
N283       N    0.0357374211    0.2023765609   -0.0250242682          0.5906
H284       H    0.0372609670    0.2047252060   -0.0541859140          0.5697
H285       H    0.0584161386    0.1584651756    0.0046744843          -0.382
H286       H   -0.0424966397    0.1886259901    0.0261880196         -0.3973
H287       H   -0.0194149379    0.1433504410   -0.0244112925          0.5709
H288       H    0.0036256860    0.1904696794    0.0477556851         -0.3665
H289       H   -0.0198301027    0.2184313099   -0.0315615569          0.5686
C248       C   -0.1473917473   -0.0000000000    0.0000000000         -0.3961
C249       C   -0.1688328324   -0.0055733017    0.0326632666          -0.383
C250       C   -0.2084681541   -0.0060690814    0.0327689199          -0.385
C251       C   -0.2312362151   -0.0015237027    0.0010471530            -0.4
C252       C   -0.2093803534    0.0055193173   -0.0307468505          0.5883
C253       C   -0.1699924200    0.0065278221   -0.0309807357          0.5905
C254       C   -0.2784635135   -0.0081487885   -0.0015274391          0.5927
Br255     Br   -0.2328127920   -0.0137283083    0.0812001900         -0.3649
Cl256     Cl   -0.1461669435   -0.0113144614    0.0769064513         -0.3621
H257       H   -0.1556630130    0.0116825130   -0.0583200841          0.5797
Cl258     Cl   -0.2318682369    0.0128153498   -0.0744594854          0.5686
C259       C   -0.3124278619    0.0230095129   -0.0048577074         -0.3917
C260       C   -0.3526082527   -0.0000000000    0.0000000000          0.5953
N261       N   -0.3395802627   -0.0264309640    0.0308875646          0.5962
N262       N   -0.2976234391   -0.0347207276    0.0264168193          0.5906
H263       H   -0.2952747940   -0.0629606988    0.0189853455          0.5697
H264       H   -0.3415348244   -0.0133411691    0.0570640803          -0.382
H265       H   -0.3113740099    0.0378880325   -0.0325003653         -0.3973
H266       H   -0.3566495590   -0.0173375013   -0.0259280170          0.5709
H267       H   -0.3095303206    0.0443819785    0.0179997513         -0.3665
H268       H   -0.2815686901   -0.0240215299   -0.0285014201          0.5686
C227       C    0.1473917473   -0.0000000000    0.0000000000         -0.3961
C228       C    0.1688328324   -0.0229866163   -0.0238655850          -0.383
C229       C    0.2084681541   -0.0234559111   -0.0236739539          -0.385
C230       C    0.2312362151   -0.0018488188   -0.0000082715            -0.4
C231       C    0.2093803534    0.0218636376    0.0223117241          0.5883
C232       C    0.1699924200    0.0228289402    0.0219375918          0.5905
C233       C    0.2784635135   -0.0058768550    0.0058479397          0.5927
Br234     Br    0.2328127920   -0.0570394191   -0.0594006900         -0.3649
Cl235     Cl    0.1461669435   -0.0526279205   -0.0572094509         -0.3621
H236       H    0.1556630130    0.0424737796    0.0416376196          0.5797
Cl237     Cl    0.2318682369    0.0524917673    0.0543420879          0.5686
C238       C    0.3124278619    0.0217545913   -0.0089315597         -0.3917
C239       C    0.3526082527   -0.0000000000    0.0000000000          0.5953
N240       N    0.3395802627   -0.0392297791   -0.0106612351          0.5962
N241       N    0.2976234391   -0.0435669992   -0.0023008365          0.5906
H242       H    0.2952747940   -0.0627304147    0.0197329168          0.5697
H243       H    0.3415348244   -0.0431381924   -0.0396660107          -0.382
H244       H    0.3113740099    0.0496084665    0.0055476851         -0.3973
H245       H    0.3566495590    0.0002571475    0.0311894997          0.5709
H246       H    0.3095303206    0.0265607928   -0.0398531724         -0.3665
H247       H    0.2815686901   -0.0038202839    0.0370778947          0.5686
C206       C   -0.0000000000    0.0000000000   -0.3526082527         -0.3961
C207       C    0.0226568313   -0.0241788890   -0.3311671676          -0.383
C208       C    0.0224414134   -0.0246377520   -0.2915318459          -0.385
C209       C   -0.0000864399   -0.0018468155   -0.2687637849            -0.4
C210       C   -0.0211625316    0.0229777922   -0.2906196466          0.5883
C211       C   -0.0207394455    0.0239226638   -0.3300075800          0.5905
C212       C   -0.0061412884   -0.0055695960   -0.2215364865          0.5927
Br213     Br    0.0564010294   -0.0600071761   -0.2671872080         -0.3649
Cl214     Cl    0.0544386335   -0.0554892285   -0.3538330565         -0.3621
H215       H   -0.0394073610    0.0445507938   -0.3443369870          0.5797
Cl216     Cl   -0.0515820086    0.0552063814   -0.2681317631          0.5686
C217       C    0.0100341529    0.0212685396   -0.1875721381         -0.3917
C218       C    0.0000000000   -0.0000000000   -0.1473917473          0.5953
N219       N    0.0086378046   -0.0397243734   -0.1604197373          0.5962
N220       N    0.0000662188   -0.0436276619   -0.2023765609          0.5906
H221       H   -0.0229202025   -0.0616373041   -0.2047252060          0.5697
H222       H    0.0374043076   -0.0451133442   -0.1584651756          -0.382
H223       H   -0.0029993480    0.0498275091   -0.1886259901         -0.3973
H224       H   -0.0311353850    0.0018544045   -0.1433504410          0.5709
H225       H    0.0411613584    0.0244845590   -0.1904696794         -0.3665
H226       H   -0.0372249052   -0.0019160578   -0.2184313099          0.5686
C185       C   -0.0000000000    0.0000000000    0.1473917473         -0.3961
C186       C    0.0310608884   -0.0115400125    0.1688328324          -0.383
C187       C    0.0310726691   -0.0120467879    0.2084681541          -0.385
C188       C    0.0007460922   -0.0016916104    0.2312362151            -0.4
C189       C   -0.0291878052    0.0111312043    0.2093803534          0.5883
C190       C   -0.0292304068    0.0121655975    0.1699924200          0.5905
C191       C   -0.0030136245   -0.0077235931    0.2784635135          0.5927
Br192     Br    0.0772402511   -0.0285636292    0.2328127920         -0.3649
Cl193     Cl    0.0734692512   -0.0253946532    0.1461669435         -0.3621
H194       H   -0.0551376283    0.0223059470    0.1556630130          0.5797
Cl195     Cl   -0.0707861947    0.0264152001    0.2318682369          0.5686
C196       C   -0.0005018005    0.0235113419    0.3124278619         -0.3917
C197       C   -0.0000000000    0.0000000000    0.3526082527          0.5953
N198       N    0.0254440498   -0.0317054859    0.3395802627          0.5962
N199       N    0.0195121092   -0.0390212104    0.2976234391          0.5906
H200       H    0.0069673609   -0.0653907396    0.2952747940          0.5697
H201       H    0.0535955445   -0.0237026086    0.3415348244          -0.382
H202       H   -0.0249019345    0.0432628064    0.3113740099         -0.3973
H203       H   -0.0286958568   -0.0122228810    0.3566495590          0.5709
H204       H    0.0259259185    0.0402690676    0.3095303206         -0.3665
H205       H   -0.0324653473   -0.0183130028    0.2815686901          0.5686
loop_
_geom_bond_atom_site_label_1
_geom_bond_atom_site_label_2
_geom_bond_distance
_geom_bond_site_symmetry_2
_ccdc_geom_bond_type
Zn1          O5 1.942       .   S
Zn1          O6 1.922       .   S
Zn1         O10 1.922       .   S
Zn1         O17 1.922       .   S
Zn2          O5 1.942       .   S
Zn2          O7 1.922       .   S
Zn2          O9 1.922       .   S
Zn2         O13 1.922       .   S
Zn3          O5 1.942       .   S
Zn3          O8 1.922       .   S
Zn3         O11 1.922       .   S
Zn3         O14 1.922       .   S
Zn4          O5 1.942       .   S
Zn4         O12 1.922       .   S
Zn4         O15 1.922       .   S
Zn4         O16 1.922       .   S
O6          C18 1.304       .   A
O7          C19 1.304       .   A
O8          C20 1.304       .   A
O9          C18 1.304       .   A
O10         C20 1.304       .   A
O11         C19 1.304       .   A
O12         C21 1.304       .   A
O13         C22 1.304       .   A
O14         C21 1.304       .   A
O15         C22 1.304       .   A
O16         C23 1.304       .   A
O17         C23 1.304       .   A
C18        C185 1.540       .   S
C19        C302 1.540       .   S
C20        C248 1.540       .   S
C21        C218 1.540       .   S
C22        C227 1.540       .   S
C23        C281 1.540       .   S
Zn24        O28 1.942       .   S
Zn24        O29 1.922       .   S
Zn24        O33 1.922       .   S
Zn24        O40 1.922       .   S
Zn25        O28 1.942       .   S
Zn25        O30 1.922       .   S
Zn25        O32 1.922       .   S
Zn25        O36 1.922       .   S
Zn26        O28 1.942       .   S
Zn26        O31 1.922       .   S
Zn26        O34 1.922       .   S
Zn26        O37 1.922       .   S
Zn27        O28 1.942       .   S
Zn27        O35 1.922       .   S
Zn27        O38 1.922       .   S
Zn27        O39 1.922       .   S
O29         C41 1.304       .   A
O30         C42 1.304       .   A
O31         C43 1.304       .   A
O32         C41 1.304       .   A
O33         C43 1.304       .   A
O34         C42 1.304       .   A
O35         C44 1.304       .   A
O36         C45 1.304       .   A
O37         C44 1.304       .   A
O38         C45 1.304       .   A
O39         C46 1.304       .   A
O40         C46 1.304       .   A
C41        C365 1.540       .   S
C42        C197 1.540   1_655   S
C43        C323 1.540       .   S
C44        C374 1.540       .   S
C45        C344 1.540       .   S
C46        C206 1.540   1_656   S
Zn47        O51 1.942       .   S
Zn47        O52 1.922       .   S
Zn47        O56 1.922       .   S
Zn47        O63 1.922       .   S
Zn48        O51 1.942       .   S
Zn48        O53 1.922       .   S
Zn48        O55 1.922       .   S
Zn48        O59 1.922       .   S
Zn49        O51 1.942       .   S
Zn49        O54 1.922       .   S
Zn49        O57 1.922       .   S
Zn49        O60 1.922       .   S
Zn50        O51 1.942       .   S
Zn50        O58 1.922       .   S
Zn50        O61 1.922       .   S
Zn50        O62 1.922       .   S
O52         C64 1.304       .   A
O53         C65 1.304       .   A
O54         C66 1.304       .   A
O55         C64 1.304       .   A
O56         C66 1.304       .   A
O57         C65 1.304       .   A
O58         C67 1.304       .   A
O59         C68 1.304       .   A
O60         C67 1.304       .   A
O61         C68 1.304       .   A
O62         C69 1.304       .   A
O63         C69 1.304       .   A
C64        C269 1.540   1_655   S
C65        C407 1.540       .   S
C66        C437 1.540       .   S
C67        C290 1.540   1_665   S
C68        C458 1.540       .   S
C69        C416 1.540       .   S
Zn70        O74 1.942       .   S
Zn70        O75 1.922       .   S
Zn70        O79 1.922       .   S
Zn70        O86 1.922       .   S
Zn71        O74 1.942       .   S
Zn71        O76 1.922       .   S
Zn71        O78 1.922       .   S
Zn71        O82 1.922       .   S
Zn72        O74 1.942       .   S
Zn72        O77 1.922       .   S
Zn72        O80 1.922       .   S
Zn72        O83 1.922       .   S
Zn73        O74 1.942       .   S
Zn73        O81 1.922       .   S
Zn73        O84 1.922       .   S
Zn73        O85 1.922       .   S
O75         C87 1.304       .   A
O76         C88 1.304       .   A
O77         C89 1.304       .   A
O78         C87 1.304       .   A
O79         C89 1.304       .   A
O80         C88 1.304       .   A
O81         C90 1.304       .   A
O82         C91 1.304       .   A
O83         C90 1.304       .   A
O84         C91 1.304       .   A
O85         C92 1.304       .   A
O86         C92 1.304       .   A
C87        C353 1.540       .   S
C88        C395 1.540       .   S
C89        C500 1.540       .   S
C90        C386 1.540   1_565   S
C91        C479 1.540       .   S
C92        C428 1.540   1_556   S
Zn93        O97 1.942       .   S
Zn93        O98 1.922       .   S
Zn93       O102 1.922       .   S
Zn93       O109 1.922       .   S
Zn94        O97 1.942       .   S
Zn94        O99 1.922       .   S
Zn94       O101 1.922       .   S
Zn94       O105 1.922       .   S
Zn95        O97 1.942       .   S
Zn95       O100 1.922       .   S
Zn95       O103 1.922       .   S
Zn95       O106 1.922       .   S
Zn96        O97 1.942       .   S
Zn96       O104 1.922       .   S
Zn96       O107 1.922       .   S
Zn96       O108 1.922       .   S
O98        C110 1.304       .   A
O99        C111 1.304       .   A
O100       C112 1.304       .   A
O101       C110 1.304       .   A
O102       C112 1.304       .   A
O103       C111 1.304       .   A
O104       C113 1.304       .   A
O105       C114 1.304       .   A
O106       C113 1.304       .   A
O107       C114 1.304       .   A
O108       C115 1.304       .   A
O109       C115 1.304       .   A
C110       C239 1.540   1_565   S
C111       C533 1.540       .   S
C112       C584 1.540       .   S
C113       C260 1.540   1_665   S
C114       C563 1.540       .   S
C115       C554 1.540       .   S
Zn116      O120 1.942       .   S
Zn116      O121 1.922       .   S
Zn116      O125 1.922       .   S
Zn116      O132 1.922       .   S
Zn117      O120 1.942       .   S
Zn117      O122 1.922       .   S
Zn117      O124 1.922       .   S
Zn117      O128 1.922       .   S
Zn118      O120 1.942       .   S
Zn118      O123 1.922       .   S
Zn118      O126 1.922       .   S
Zn118      O129 1.922       .   S
Zn119      O120 1.942       .   S
Zn119      O127 1.922       .   S
Zn119      O130 1.922       .   S
Zn119      O131 1.922       .   S
O121       C133 1.304       .   A
O122       C134 1.304       .   A
O123       C135 1.304       .   A
O124       C133 1.304       .   A
O125       C135 1.304       .   A
O126       C134 1.304       .   A
O127       C136 1.304       .   A
O128       C137 1.304       .   A
O129       C136 1.304       .   A
O130       C137 1.304       .   A
O131       C138 1.304       .   A
O132       C138 1.304       .   A
C133       C311 1.540   1_465   S
C134       C521 1.540       .   S
C135       C605 1.540       .   S
C136       C332 1.540   1_565   S
C137       C626 1.540       .   S
C138       C542 1.540   1_556   S
Zn139      O143 1.942       .   S
Zn139      O144 1.922       .   S
Zn139      O148 1.922       .   S
Zn139      O155 1.922       .   S
Zn140      O143 1.942       .   S
Zn140      O145 1.922       .   S
Zn140      O147 1.922       .   S
Zn140      O151 1.922       .   S
Zn141      O143 1.942       .   S
Zn141      O146 1.922       .   S
Zn141      O149 1.922       .   S
Zn141      O152 1.922       .   S
Zn142      O143 1.942       .   S
Zn142      O150 1.922       .   S
Zn142      O153 1.922       .   S
Zn142      O154 1.922       .   S
O144       C156 1.304       .   A
O145       C157 1.304       .   A
O146       C158 1.304       .   A
O147       C156 1.304       .   A
O148       C158 1.304       .   A
O149       C157 1.304       .   A
O150       C159 1.304       .   A
O151       C160 1.304       .   A
O152       C159 1.304       .   A
O153       C160 1.304       .   A
O154       C161 1.304       .   A
O155       C161 1.304       .   A
C156       C449 1.540   1_455   S
C157       C575 1.540   1_545   S
C158       C668 1.540       .   S
C159       C470 1.540       .   S
C160       C659 1.540       .   S
C161       C596 1.540       .   S
Zn162      O166 1.942       .   S
Zn162      O167 1.922       .   S
Zn162      O171 1.922       .   S
Zn162      O178 1.922       .   S
Zn163      O166 1.942       .   S
Zn163      O168 1.922       .   S
Zn163      O170 1.922       .   S
Zn163      O174 1.922       .   S
Zn164      O166 1.942       .   S
Zn164      O169 1.922       .   S
Zn164      O172 1.922       .   S
Zn164      O175 1.922       .   S
Zn165      O166 1.942       .   S
Zn165      O173 1.922       .   S
Zn165      O176 1.922       .   S
Zn165      O177 1.922       .   S
O167       C179 1.304       .   A
O168       C180 1.304       .   A
O169       C181 1.304       .   A
O170       C179 1.304       .   A
O171       C181 1.304       .   A
O172       C180 1.304       .   A
O173       C182 1.304       .   A
O174       C183 1.304       .   A
O175       C182 1.304       .   A
O176       C183 1.304       .   A
O177       C184 1.304       .   A
O178       C184 1.304       .   A
C179       C491 1.540   1_455   S
C180       C647 1.540       .   S
C181       C638 1.540       .   S
C182       C512 1.540       .   S
C183       C617 1.540   1_545   S
C184       C680 1.540   1_556   S
C668       C669 0.032       .   A
C668       C673 0.031       .   A
C669       C670 0.032       .   A
C669      Cl676 0.040       .   A
C670       C671 0.032       .   A
C670      Br675 0.044       .   A
C671       C672 0.032       .   A
C671       C674 0.038       .   A
C672       C673 0.032       .   A
C672      Cl678 0.040       .   A
C673       H677 0.025       .   A
C674       C679 0.037       .   A
C674       N682 0.035       .   A
C674       H688 0.025       .   A
C679       C680 0.038       .   A
C679       H685 0.025       .   A
C679       H687 0.025       .   A
C680       N681 0.034       .   A
C680       H686 0.025       .   A
N681       N682 0.035       .   A
N681       H684 0.024       .   A
N682       H683 0.024       .   A
C647       C648 0.032       .   A
C647       C652 0.031       .   A
C648       C649 0.032       .   A
C648      Cl655 0.040       .   A
C649       C650 0.032       .   A
C649      Br654 0.044       .   A
C650       C651 0.032       .   A
C650       C653 0.038       .   A
C651       C652 0.032       .   A
C651      Cl657 0.040       .   A
C652       H656 0.025       .   A
C653       C658 0.037       .   A
C653       N661 0.035       .   A
C653       H667 0.025       .   A
C658       C659 0.038       .   A
C658       H664 0.025       .   A
C658       H666 0.025       .   A
C659       N660 0.034       .   A
C659       H665 0.025       .   A
N660       N661 0.035       .   A
N660       H663 0.024       .   A
N661       H662 0.024       .   A
C626       C627 0.032       .   A
C626       C631 0.031       .   A
C627       C628 0.032       .   A
C627      Cl634 0.040       .   A
C628       C629 0.032       .   A
C628      Br633 0.044       .   A
C629       C630 0.032       .   A
C629       C632 0.038       .   A
C630       C631 0.032       .   A
C630      Cl636 0.040       .   A
C631       H635 0.025       .   A
C632       C637 0.037       .   A
C632       N640 0.035       .   A
C632       H646 0.025       .   A
C637       C638 0.038       .   A
C637       H643 0.025       .   A
C637       H645 0.025       .   A
C638       N639 0.034       .   A
C638       H644 0.025       .   A
N639       N640 0.035       .   A
N639       H642 0.024       .   A
N640       H641 0.024       .   A
C605       C606 0.032       .   A
C605       C610 0.031       .   A
C606       C607 0.032       .   A
C606      Cl613 0.040       .   A
C607       C608 0.032       .   A
C607      Br612 0.044       .   A
C608       C609 0.032       .   A
C608       C611 0.038       .   A
C609       C610 0.032       .   A
C609      Cl615 0.040       .   A
C610       H614 0.025       .   A
C611       C616 0.037       .   A
C611       N619 0.035       .   A
C611       H625 0.025       .   A
C616       C617 0.038       .   A
C616       H622 0.025       .   A
C616       H624 0.025       .   A
C617       N618 0.034       .   A
C617       H623 0.025       .   A
N618       N619 0.035       .   A
N618       H621 0.024       .   A
N619       H620 0.024       .   A
C584       C585 0.032       .   A
C584       C589 0.031       .   A
C585       C586 0.032       .   A
C585      Cl592 0.040       .   A
C586       C587 0.032       .   A
C586      Br591 0.044       .   A
C587       C588 0.032       .   A
C587       C590 0.038       .   A
C588       C589 0.032       .   A
C588      Cl594 0.040       .   A
C589       H593 0.025       .   A
C590       C595 0.037       .   A
C590       N598 0.035       .   A
C590       H604 0.025       .   A
C595       C596 0.038       .   A
C595       H601 0.025       .   A
C595       H603 0.025       .   A
C596       N597 0.034       .   A
C596       H602 0.025       .   A
N597       N598 0.035       .   A
N597       H600 0.024       .   A
N598       H599 0.024       .   A
C563       C564 0.032       .   A
C563       C568 0.031       .   A
C564       C565 0.032       .   A
C564      Cl571 0.040       .   A
C565       C566 0.032       .   A
C565      Br570 0.044       .   A
C566       C567 0.032       .   A
C566       C569 0.038       .   A
C567       C568 0.032       .   A
C567      Cl573 0.040       .   A
C568       H572 0.025       .   A
C569       C574 0.037       .   A
C569       N577 0.035       .   A
C569       H583 0.025       .   A
C574       C575 0.038       .   A
C574       H580 0.025       .   A
C574       H582 0.025       .   A
C575       N576 0.034       .   A
C575       H581 0.025       .   A
N576       N577 0.035       .   A
N576       H579 0.024       .   A
N577       H578 0.024       .   A
C542       C543 0.032       .   A
C542       C547 0.031       .   A
C543       C544 0.032       .   A
C543      Cl550 0.040       .   A
C544       C545 0.032       .   A
C544      Br549 0.044       .   A
C545       C546 0.032       .   A
C545       C548 0.038       .   A
C546       C547 0.032       .   A
C546      Cl552 0.040       .   A
C547       H551 0.025       .   A
C548       C553 0.037       .   A
C548       N556 0.035       .   A
C548       H562 0.025       .   A
C553       C554 0.038       .   A
C553       H559 0.025       .   A
C553       H561 0.025       .   A
C554       N555 0.034       .   A
C554       H560 0.025       .   A
N555       N556 0.035       .   A
N555       H558 0.024       .   A
N556       H557 0.024       .   A
C521       C522 0.032       .   A
C521       C526 0.031       .   A
C522       C523 0.032       .   A
C522      Cl529 0.040       .   A
C523       C524 0.032       .   A
C523      Br528 0.044       .   A
C524       C525 0.032       .   A
C524       C527 0.038       .   A
C525       C526 0.032       .   A
C525      Cl531 0.040       .   A
C526       H530 0.025       .   A
C527       C532 0.037       .   A
C527       N535 0.035       .   A
C527       H541 0.025       .   A
C532       C533 0.038       .   A
C532       H538 0.025       .   A
C532       H540 0.025       .   A
C533       N534 0.034       .   A
C533       H539 0.025       .   A
N534       N535 0.035       .   A
N534       H537 0.024       .   A
N535       H536 0.024       .   A
C500       C501 0.032       .   A
C500       C505 0.031       .   A
C501       C502 0.032       .   A
C501      Cl508 0.040       .   A
C502       C503 0.032       .   A
C502      Br507 0.044       .   A
C503       C504 0.032       .   A
C503       C506 0.038       .   A
C504       C505 0.032       .   A
C504      Cl510 0.040       .   A
C505       H509 0.025       .   A
C506       C511 0.037       .   A
C506       N514 0.035       .   A
C506       H520 0.025       .   A
C511       C512 0.038       .   A
C511       H517 0.025       .   A
C511       H519 0.025       .   A
C512       N513 0.034       .   A
C512       H518 0.025       .   A
N513       N514 0.035       .   A
N513       H516 0.024       .   A
N514       H515 0.024       .   A
C479       C480 0.032       .   A
C479       C484 0.031       .   A
C480       C481 0.032       .   A
C480      Cl487 0.040       .   A
C481       C482 0.032       .   A
C481      Br486 0.044       .   A
C482       C483 0.032       .   A
C482       C485 0.038       .   A
C483       C484 0.032       .   A
C483      Cl489 0.040       .   A
C484       H488 0.025       .   A
C485       C490 0.037       .   A
C485       N493 0.035       .   A
C485       H499 0.025       .   A
C490       C491 0.038       .   A
C490       H496 0.025       .   A
C490       H498 0.025       .   A
C491       N492 0.034       .   A
C491       H497 0.025       .   A
N492       N493 0.035       .   A
N492       H495 0.024       .   A
N493       H494 0.024       .   A
C458       C459 0.032       .   A
C458       C463 0.031       .   A
C459       C460 0.032       .   A
C459      Cl466 0.040       .   A
C460       C461 0.032       .   A
C460      Br465 0.044       .   A
C461       C462 0.032       .   A
C461       C464 0.038       .   A
C462       C463 0.032       .   A
C462      Cl468 0.040       .   A
C463       H467 0.025       .   A
C464       C469 0.037       .   A
C464       N472 0.035       .   A
C464       H478 0.025       .   A
C469       C470 0.038       .   A
C469       H475 0.025       .   A
C469       H477 0.025       .   A
C470       N471 0.034       .   A
C470       H476 0.025       .   A
N471       N472 0.035       .   A
N471       H474 0.024       .   A
N472       H473 0.024       .   A
C437       C438 0.032       .   A
C437       C442 0.031       .   A
C438       C439 0.032       .   A
C438      Cl445 0.040       .   A
C439       C440 0.032       .   A
C439      Br444 0.044       .   A
C440       C441 0.032       .   A
C440       C443 0.038       .   A
C441       C442 0.032       .   A
C441      Cl447 0.040       .   A
C442       H446 0.025       .   A
C443       C448 0.037       .   A
C443       N451 0.035       .   A
C443       H457 0.025       .   A
C448       C449 0.038       .   A
C448       H454 0.025       .   A
C448       H456 0.025       .   A
C449       N450 0.034       .   A
C449       H455 0.025       .   A
N450       N451 0.035       .   A
N450       H453 0.024       .   A
N451       H452 0.024       .   A
C416       C417 0.032       .   A
C416       C421 0.031       .   A
C417       C418 0.032       .   A
C417      Cl424 0.040       .   A
C418       C419 0.032       .   A
C418      Br423 0.044       .   A
C419       C420 0.032       .   A
C419       C422 0.038       .   A
C420       C421 0.032       .   A
C420      Cl426 0.040       .   A
C421       H425 0.025       .   A
C422       C427 0.037       .   A
C422       N430 0.035       .   A
C422       H436 0.025       .   A
C427       C428 0.038       .   A
C427       H433 0.025       .   A
C427       H435 0.025       .   A
C428       N429 0.034       .   A
C428       H434 0.025       .   A
N429       N430 0.035       .   A
N429       H432 0.024       .   A
N430       H431 0.024       .   A
C395       C396 0.032       .   A
C395       C400 0.031       .   A
C396       C397 0.032       .   A
C396      Cl403 0.040       .   A
C397       C398 0.032       .   A
C397      Br402 0.044       .   A
C398       C399 0.032       .   A
C398       C401 0.038       .   A
C399       C400 0.032       .   A
C399      Cl405 0.040       .   A
C400       H404 0.025       .   A
C401       C406 0.037       .   A
C401       N409 0.035       .   A
C401       H415 0.025       .   A
C406       C407 0.038       .   A
C406       H412 0.025       .   A
C406       H414 0.025       .   A
C407       N408 0.034       .   A
C407       H413 0.025       .   A
N408       N409 0.035       .   A
N408       H411 0.024       .   A
N409       H410 0.024       .   A
C374       C375 0.032       .   A
C374       C379 0.031       .   A
C375       C376 0.032       .   A
C375      Cl382 0.040       .   A
C376       C377 0.032       .   A
C376      Br381 0.044       .   A
C377       C378 0.032       .   A
C377       C380 0.038       .   A
C378       C379 0.032       .   A
C378      Cl384 0.040       .   A
C379       H383 0.025       .   A
C380       C385 0.037       .   A
C380       N388 0.035       .   A
C380       H394 0.025       .   A
C385       C386 0.038       .   A
C385       H391 0.025       .   A
C385       H393 0.025       .   A
C386       N387 0.034       .   A
C386       H392 0.025       .   A
N387       N388 0.035       .   A
N387       H390 0.024       .   A
N388       H389 0.024       .   A
C353       C354 0.032       .   A
C353       C358 0.031       .   A
C354       C355 0.032       .   A
C354      Cl361 0.040       .   A
C355       C356 0.032       .   A
C355      Br360 0.044       .   A
C356       C357 0.032       .   A
C356       C359 0.038       .   A
C357       C358 0.032       .   A
C357      Cl363 0.040       .   A
C358       H362 0.025       .   A
C359       C364 0.037       .   A
C359       N367 0.035       .   A
C359       H373 0.025       .   A
C364       C365 0.038       .   A
C364       H370 0.025       .   A
C364       H372 0.025       .   A
C365       N366 0.034       .   A
C365       H371 0.025       .   A
N366       N367 0.035       .   A
N366       H369 0.024       .   A
N367       H368 0.024       .   A
C332       C333 0.032       .   A
C332       C337 0.031       .   A
C333       C334 0.032       .   A
C333      Cl340 0.040       .   A
C334       C335 0.032       .   A
C334      Br339 0.044       .   A
C335       C336 0.032       .   A
C335       C338 0.038       .   A
C336       C337 0.032       .   A
C336      Cl342 0.040       .   A
C337       H341 0.025       .   A
C338       C343 0.037       .   A
C338       N346 0.035       .   A
C338       H352 0.025       .   A
C343       C344 0.038       .   A
C343       H349 0.025       .   A
C343       H351 0.025       .   A
C344       N345 0.034       .   A
C344       H350 0.025       .   A
N345       N346 0.035       .   A
N345       H348 0.024       .   A
N346       H347 0.024       .   A
C311       C312 0.032       .   A
C311       C316 0.031       .   A
C312       C313 0.032       .   A
C312      Cl319 0.040       .   A
C313       C314 0.032       .   A
C313      Br318 0.044       .   A
C314       C315 0.032       .   A
C314       C317 0.038       .   A
C315       C316 0.032       .   A
C315      Cl321 0.040       .   A
C316       H320 0.025       .   A
C317       C322 0.037       .   A
C317       N325 0.035       .   A
C317       H331 0.025       .   A
C322       C323 0.038       .   A
C322       H328 0.025       .   A
C322       H330 0.025       .   A
C323       N324 0.034       .   A
C323       H329 0.025       .   A
N324       N325 0.035       .   A
N324       H327 0.024       .   A
N325       H326 0.024       .   A
C290       C291 0.032       .   A
C290       C295 0.031       .   A
C291       C292 0.032       .   A
C291      Cl298 0.040       .   A
C292       C293 0.032       .   A
C292      Br297 0.044       .   A
C293       C294 0.032       .   A
C293       C296 0.038       .   A
C294       C295 0.032       .   A
C294      Cl300 0.040       .   A
C295       H299 0.025       .   A
C296       C301 0.037       .   A
C296       N304 0.035       .   A
C296       H310 0.025       .   A
C301       C302 0.038       .   A
C301       H307 0.025       .   A
C301       H309 0.025       .   A
C302       N303 0.034       .   A
C302       H308 0.025       .   A
N303       N304 0.035       .   A
N303       H306 0.024       .   A
N304       H305 0.024       .   A
C269       C270 0.032       .   A
C269       C274 0.031       .   A
C270       C271 0.032       .   A
C270      Cl277 0.040       .   A
C271       C272 0.032       .   A
C271      Br276 0.044       .   A
C272       C273 0.032       .   A
C272       C275 0.038       .   A
C273       C274 0.032       .   A
C273      Cl279 0.040       .   A
C274       H278 0.025       .   A
C275       C280 0.037       .   A
C275       N283 0.035       .   A
C275       H289 0.025       .   A
C280       C281 0.038       .   A
C280       H286 0.025       .   A
C280       H288 0.025       .   A
C281       N282 0.034       .   A
C281       H287 0.025       .   A
N282       N283 0.035       .   A
N282       H285 0.024       .   A
N283       H284 0.024       .   A
C248       C249 0.032       .   A
C248       C253 0.031       .   A
C249       C250 0.032       .   A
C249      Cl256 0.040       .   A
C250       C251 0.032       .   A
C250      Br255 0.044       .   A
C251       C252 0.032       .   A
C251       C254 0.038       .   A
C252       C253 0.032       .   A
C252      Cl258 0.040       .   A
C253       H257 0.025       .   A
C254       C259 0.037       .   A
C254       N262 0.035       .   A
C254       H268 0.025       .   A
C259       C260 0.038       .   A
C259       H265 0.025       .   A
C259       H267 0.025       .   A
C260       N261 0.034       .   A
C260       H266 0.025       .   A
N261       N262 0.035       .   A
N261       H264 0.024       .   A
N262       H263 0.024       .   A
C227       C228 0.032       .   A
C227       C232 0.031       .   A
C228       C229 0.032       .   A
C228      Cl235 0.040       .   A
C229       C230 0.032       .   A
C229      Br234 0.044       .   A
C230       C231 0.032       .   A
C230       C233 0.038       .   A
C231       C232 0.032       .   A
C231      Cl237 0.040       .   A
C232       H236 0.025       .   A
C233       C238 0.037       .   A
C233       N241 0.035       .   A
C233       H247 0.025       .   A
C238       C239 0.038       .   A
C238       H244 0.025       .   A
C238       H246 0.025       .   A
C239       N240 0.034       .   A
C239       H245 0.025       .   A
N240       N241 0.035       .   A
N240       H243 0.024       .   A
N241       H242 0.024       .   A
C206       C207 0.032       .   A
C206       C211 0.031       .   A
C207       C208 0.032       .   A
C207      Cl214 0.040       .   A
C208       C209 0.032       .   A
C208      Br213 0.044       .   A
C209       C210 0.032       .   A
C209       C212 0.038       .   A
C210       C211 0.032       .   A
C210      Cl216 0.040       .   A
C211       H215 0.025       .   A
C212       C217 0.037       .   A
C212       N220 0.035       .   A
C212       H226 0.025       .   A
C217       C218 0.038       .   A
C217       H223 0.025       .   A
C217       H225 0.025       .   A
C218       N219 0.034       .   A
C218       H224 0.025       .   A
N219       N220 0.035       .   A
N219       H222 0.024       .   A
N220       H221 0.024       .   A
C185       C186 0.032       .   A
C185       C190 0.031       .   A
C186       C187 0.032       .   A
C186      Cl193 0.040       .   A
C187       C188 0.032       .   A
C187      Br192 0.044       .   A
C188       C189 0.032       .   A
C188       C191 0.038       .   A
C189       C190 0.032       .   A
C189      Cl195 0.040       .   A
C190       H194 0.025       .   A
C191       C196 0.037       .   A
C191       N199 0.035       .   A
C191       H205 0.025       .   A
C196       C197 0.038       .   A
C196       H202 0.025       .   A
C196       H204 0.025       .   A
C197       N198 0.034       .   A
C197       H203 0.025       .   A
N198       N199 0.035       .   A
N198       H201 0.024       .   A
N199       H200 0.024       .   A
