data_pcu_v1-6c_Zn_1_Ch_1-95_fer_tobacco
_audit_creation_date              2021-02-03
_audit_creation_method            'tobacco_3.0'
_symmetry_space_group_name_H-M    'P1'
_symmetry_Int_Tables_number       1
_symmetry_cell_setting            triclinic
loop_
_symmetry_equiv_pos_as_xyz
  x,y,z
_cell_length_a                    38.49587471137305
_cell_length_b                    38.49587471137305
_cell_length_c                    38.49587471137305
_cell_angle_alpha                 90.0
_cell_angle_beta                  90.0
_cell_angle_gamma                 90.0
loop_
_atom_site_label
_atom_site_type_symbol
_atom_site_fract_x
_atom_site_fract_y
_atom_site_fract_z
_atom_site_charge
Zn1       Zn   -0.0291251987    0.0291251987   -0.0291251987          1.4972
Zn2       Zn    0.0291251987    0.0291251987    0.0291251987          1.4936
Zn3       Zn   -0.0291251987   -0.0291251987    0.0291251987          1.4911
Zn4       Zn    0.0291251987   -0.0291251987   -0.0291251987          1.4948
O5         O    0.0000000000    0.0000000000    0.0000000000         -2.3141
O6         O   -0.0214048909    0.0778421070   -0.0214048909         -1.2204
O7         O    0.0214048909    0.0214048909    0.0778421070         -1.2186
O8         O   -0.0778421070   -0.0214048909    0.0214048909         -1.2137
O9         O    0.0214048909    0.0778421070    0.0214048909         -1.2205
O10        O   -0.0778421070    0.0214048909   -0.0214048909         -1.2165
O11        O   -0.0214048909   -0.0214048909    0.0778421070         -1.2223
O12        O    0.0214048909   -0.0778421070   -0.0214048909         -1.2163
O13        O    0.0778421070    0.0214048909    0.0214048909         -1.2238
O14        O   -0.0214048909   -0.0778421070    0.0214048909         -1.2177
O15        O    0.0778421070   -0.0214048909   -0.0214048909         -1.2224
O16        O    0.0214048909   -0.0214048909   -0.0778421070         -1.2215
O17        O   -0.0214048909    0.0214048909   -0.0778421070         -1.2194
C18        C   -0.0000000000    0.0930697127    0.0000000000          0.2985
C19        C    0.0000000000   -0.0000000000    0.0930697127          0.3034
C20        C   -0.0930697127    0.0000000000    0.0000000000           0.293
C21        C    0.0000000000   -0.0930697127   -0.0000000000          0.2968
C22        C    0.0930697127   -0.0000000000   -0.0000000000          0.3081
C23        C   -0.0000000000    0.0000000000   -0.0930697127          0.2986
Zn24      Zn    0.9708748013    0.0291251987    0.4708748013          1.4972
Zn25      Zn    1.0291251987   -0.0291251987    0.4708748013          1.4936
Zn26      Zn    1.0291251987    0.0291251987    0.5291251987          1.4911
Zn27      Zn    0.9708748013   -0.0291251987    0.5291251987          1.4948
O28        O    1.0000000000    0.0000000000    0.5000000000         -2.3141
O29        O    0.9785951091    0.0214048909    0.4221578930         -1.2204
O30        O    1.0778421070   -0.0214048909    0.4785951091         -1.2186
O31        O    1.0214048909    0.0778421070    0.5214048909         -1.2137
O32        O    1.0214048909   -0.0214048909    0.4221578930         -1.2205
O33        O    0.9785951091    0.0778421070    0.4785951091         -1.2165
O34        O    1.0778421070    0.0214048909    0.5214048909         -1.2223
O35        O    0.9785951091   -0.0214048909    0.5778421070         -1.2163
O36        O    1.0214048909   -0.0778421070    0.4785951091         -1.2238
O37        O    1.0214048909    0.0214048909    0.5778421070         -1.2177
O38        O    0.9785951091   -0.0778421070    0.5214048909         -1.2224
O39        O    0.9221578930   -0.0214048909    0.5214048909         -1.2215
O40        O    0.9221578930    0.0214048909    0.4785951091         -1.2194
C41        C    1.0000000000    0.0000000000    0.4069302873          0.2985
C42        C    1.0930697127    0.0000000000    0.5000000000          0.3034
C43        C    1.0000000000    0.0930697127    0.5000000000           0.293
C44        C    1.0000000000    0.0000000000    0.5930697127          0.2968
C45        C    1.0000000000   -0.0930697127    0.5000000000          0.3081
C46        C    0.9069302873    0.0000000000    0.5000000000          0.2986
Zn47      Zn    0.9708748013    0.4708748013    0.0291251987          1.4972
Zn48      Zn    1.0291251987    0.5291251987    0.0291251987          1.4936
Zn49      Zn    1.0291251987    0.4708748013   -0.0291251987          1.4911
Zn50      Zn    0.9708748013    0.5291251987   -0.0291251987          1.4948
O51        O    1.0000000000    0.5000000000    0.0000000000         -2.3141
O52        O    0.9785951091    0.4785951091    0.0778421070         -1.2204
O53        O    1.0778421070    0.5214048909    0.0214048909         -1.2186
O54        O    1.0214048909    0.4221578930   -0.0214048909         -1.2137
O55        O    1.0214048909    0.5214048909    0.0778421070         -1.2205
O56        O    0.9785951091    0.4221578930    0.0214048909         -1.2165
O57        O    1.0778421070    0.4785951091   -0.0214048909         -1.2223
O58        O    0.9785951091    0.5214048909   -0.0778421070         -1.2163
O59        O    1.0214048909    0.5778421070    0.0214048909         -1.2238
O60        O    1.0214048909    0.4785951091   -0.0778421070         -1.2177
O61        O    0.9785951091    0.5778421070   -0.0214048909         -1.2224
O62        O    0.9221578930    0.5214048909   -0.0214048909         -1.2215
O63        O    0.9221578930    0.4785951091    0.0214048909         -1.2194
C64        C    1.0000000000    0.5000000000    0.0930697127          0.2985
C65        C    1.0930697127    0.5000000000    0.0000000000          0.3034
C66        C    1.0000000000    0.4069302873    0.0000000000           0.293
C67        C    1.0000000000    0.5000000000   -0.0930697127          0.2968
C68        C    1.0000000000    0.5930697127    0.0000000000          0.3081
C69        C    0.9069302873    0.5000000000    0.0000000000          0.2986
Zn70      Zn    0.9708748013    0.4708748013    0.5291251987          1.4972
Zn71      Zn    1.0291251987    0.4708748013    0.4708748013          1.4936
Zn72      Zn    0.9708748013    0.5291251987    0.4708748013          1.4911
Zn73      Zn    1.0291251987    0.5291251987    0.5291251987          1.4948
O74        O    1.0000000000    0.5000000000    0.5000000000         -2.3141
O75        O    0.9785951091    0.4221578930    0.5214048909         -1.2204
O76        O    1.0214048909    0.4785951091    0.4221578930         -1.2186
O77        O    0.9221578930    0.5214048909    0.4785951091         -1.2137
O78        O    1.0214048909    0.4221578930    0.4785951091         -1.2205
O79        O    0.9221578930    0.4785951091    0.5214048909         -1.2165
O80        O    0.9785951091    0.5214048909    0.4221578930         -1.2223
O81        O    1.0214048909    0.5778421070    0.5214048909         -1.2163
O82        O    1.0778421070    0.4785951091    0.4785951091         -1.2238
O83        O    0.9785951091    0.5778421070    0.4785951091         -1.2177
O84        O    1.0778421070    0.5214048909    0.5214048909         -1.2224
O85        O    1.0214048909    0.5214048909    0.5778421070         -1.2215
O86        O    0.9785951091    0.4785951091    0.5778421070         -1.2194
C87        C    1.0000000000    0.4069302873    0.5000000000          0.2985
C88        C    1.0000000000    0.5000000000    0.4069302873          0.3034
C89        C    0.9069302873    0.5000000000    0.5000000000           0.293
C90        C    1.0000000000    0.5930697127    0.5000000000          0.2968
C91        C    1.0930697127    0.5000000000    0.5000000000          0.3081
C92        C    1.0000000000    0.5000000000    0.5930697127          0.2986
Zn93      Zn    0.4708748013    1.0291251987   -0.0291251987          1.4972
Zn94      Zn    0.5291251987    1.0291251987    0.0291251987          1.4936
Zn95      Zn    0.4708748013    0.9708748013    0.0291251987          1.4911
Zn96      Zn    0.5291251987    0.9708748013   -0.0291251987          1.4948
O97        O    0.5000000000    1.0000000000    0.0000000000         -2.3141
O98        O    0.4785951091    1.0778421070   -0.0214048909         -1.2204
O99        O    0.5214048909    1.0214048909    0.0778421070         -1.2186
O100       O    0.4221578930    0.9785951091    0.0214048909         -1.2137
O101       O    0.5214048909    1.0778421070    0.0214048909         -1.2205
O102       O    0.4221578930    1.0214048909   -0.0214048909         -1.2165
O103       O    0.4785951091    0.9785951091    0.0778421070         -1.2223
O104       O    0.5214048909    0.9221578930   -0.0214048909         -1.2163
O105       O    0.5778421070    1.0214048909    0.0214048909         -1.2238
O106       O    0.4785951091    0.9221578930    0.0214048909         -1.2177
O107       O    0.5778421070    0.9785951091   -0.0214048909         -1.2224
O108       O    0.5214048909    0.9785951091   -0.0778421070         -1.2215
O109       O    0.4785951091    1.0214048909   -0.0778421070         -1.2194
C110       C    0.5000000000    1.0930697127    0.0000000000          0.2985
C111       C    0.5000000000    1.0000000000    0.0930697127          0.3034
C112       C    0.4069302873    1.0000000000    0.0000000000           0.293
C113       C    0.5000000000    0.9069302873    0.0000000000          0.2968
C114       C    0.5930697127    1.0000000000    0.0000000000          0.3081
C115       C    0.5000000000    1.0000000000   -0.0930697127          0.2986
Zn116     Zn    0.5291251987    0.9708748013    0.5291251987          1.4972
Zn117     Zn    0.4708748013    0.9708748013    0.4708748013          1.4936
Zn118     Zn    0.4708748013    1.0291251987    0.5291251987          1.4911
Zn119     Zn    0.5291251987    1.0291251987    0.4708748013          1.4948
O120       O    0.5000000000    1.0000000000    0.5000000000         -2.3141
O121       O    0.5214048909    0.9221578930    0.5214048909         -1.2204
O122       O    0.4221578930    0.9785951091    0.4785951091         -1.2186
O123       O    0.4785951091    1.0214048909    0.5778421070         -1.2137
O124       O    0.4785951091    0.9221578930    0.4785951091         -1.2205
O125       O    0.5214048909    0.9785951091    0.5778421070         -1.2165
O126       O    0.4221578930    1.0214048909    0.5214048909         -1.2223
O127       O    0.5214048909    1.0778421070    0.4785951091         -1.2163
O128       O    0.4785951091    0.9785951091    0.4221578930         -1.2238
O129       O    0.4785951091    1.0778421070    0.5214048909         -1.2177
O130       O    0.5214048909    1.0214048909    0.4221578930         -1.2224
O131       O    0.5778421070    1.0214048909    0.4785951091         -1.2215
O132       O    0.5778421070    0.9785951091    0.5214048909         -1.2194
C133       C    0.5000000000    0.9069302873    0.5000000000          0.2985
C134       C    0.4069302873    1.0000000000    0.5000000000          0.3034
C135       C    0.5000000000    1.0000000000    0.5930697127           0.293
C136       C    0.5000000000    1.0930697127    0.5000000000          0.2968
C137       C    0.5000000000    1.0000000000    0.4069302873          0.3081
C138       C    0.5930697127    1.0000000000    0.5000000000          0.2986
Zn139     Zn    0.4708748013    0.4708748013   -0.0291251987          1.4972
Zn140     Zn    0.4708748013    0.5291251987    0.0291251987          1.4936
Zn141     Zn    0.5291251987    0.4708748013    0.0291251987          1.4911
Zn142     Zn    0.5291251987    0.5291251987   -0.0291251987          1.4948
O143       O    0.5000000000    0.5000000000    0.0000000000         -2.3141
O144       O    0.4221578930    0.4785951091   -0.0214048909         -1.2204
O145       O    0.4785951091    0.5214048909    0.0778421070         -1.2186
O146       O    0.5214048909    0.4221578930    0.0214048909         -1.2137
O147       O    0.4221578930    0.5214048909    0.0214048909         -1.2205
O148       O    0.4785951091    0.4221578930   -0.0214048909         -1.2165
O149       O    0.5214048909    0.4785951091    0.0778421070         -1.2223
O150       O    0.5778421070    0.5214048909   -0.0214048909         -1.2163
O151       O    0.4785951091    0.5778421070    0.0214048909         -1.2238
O152       O    0.5778421070    0.4785951091    0.0214048909         -1.2177
O153       O    0.5214048909    0.5778421070   -0.0214048909         -1.2224
O154       O    0.5214048909    0.5214048909   -0.0778421070         -1.2215
O155       O    0.4785951091    0.4785951091   -0.0778421070         -1.2194
C156       C    0.4069302873    0.5000000000    0.0000000000          0.2985
C157       C    0.5000000000    0.5000000000    0.0930697127          0.3034
C158       C    0.5000000000    0.4069302873    0.0000000000           0.293
C159       C    0.5930697127    0.5000000000    0.0000000000          0.2968
C160       C    0.5000000000    0.5930697127    0.0000000000          0.3081
C161       C    0.5000000000    0.5000000000   -0.0930697127          0.2986
Zn162     Zn    0.5291251987    0.4708748013    0.4708748013          1.4972
Zn163     Zn    0.4708748013    0.5291251987    0.4708748013          1.4936
Zn164     Zn    0.4708748013    0.4708748013    0.5291251987          1.4911
Zn165     Zn    0.5291251987    0.5291251987    0.5291251987          1.4948
O166       O    0.5000000000    0.5000000000    0.5000000000         -2.3141
O167       O    0.5214048909    0.4785951091    0.4221578930         -1.2204
O168       O    0.4221578930    0.5214048909    0.4785951091         -1.2186
O169       O    0.4785951091    0.4221578930    0.5214048909         -1.2137
O170       O    0.4785951091    0.5214048909    0.4221578930         -1.2205
O171       O    0.5214048909    0.4221578930    0.4785951091         -1.2165
O172       O    0.4221578930    0.4785951091    0.5214048909         -1.2223
O173       O    0.5214048909    0.5214048909    0.5778421070         -1.2163
O174       O    0.4785951091    0.5778421070    0.4785951091         -1.2238
O175       O    0.4785951091    0.4785951091    0.5778421070         -1.2177
O176       O    0.5214048909    0.5778421070    0.5214048909         -1.2224
O177       O    0.5778421070    0.5214048909    0.5214048909         -1.2215
O178       O    0.5778421070    0.4785951091    0.4785951091         -1.2194
C179       C    0.5000000000    0.5000000000    0.4069302873          0.2985
C180       C    0.4069302873    0.5000000000    0.5000000000          0.3034
C181       C    0.5000000000    0.4069302873    0.5000000000           0.293
C182       C    0.5000000000    0.5000000000    0.5930697127          0.2968
C183       C    0.5000000000    0.5930697127    0.5000000000          0.3081
C184       C    0.5930697127    0.5000000000    0.5000000000          0.2986
C714       C    0.5000000000    0.5000000000   -0.1330739992          0.5211
C715       C    0.5297887797    0.4978911906   -0.1517765067          0.5233
C716       C    0.5314519263    0.4977012855   -0.1865888212         -0.4754
C717       C    0.5031960477    0.4997182549   -0.2071598189          0.5237
C718       C    0.4729857297    0.5015438387   -0.1891246955          0.5217
C719       C    0.4714358467    0.5015491578   -0.1536001489          0.5206
N720       N    0.5093262693    0.4991726539   -0.2414092547         -0.4748
F721       F    0.5634025298    0.4955555307   -0.2006860177         -0.4733
H722       H    0.5549415085    0.4962226902   -0.1389824517          0.5241
Br723     Br    0.4271794216    0.5043181359   -0.1327264625          0.5178
H724       H    0.4487554522    0.5030122110   -0.2035588023          0.5211
N725       N    0.4854806025    0.5031544345   -0.2648525045          0.5228
C726       C    0.4996611277    0.4966069076   -0.3021662678         -0.4707
C727       C    0.4761005748    0.5063584585   -0.3341615670          0.5225
C728       C    0.5000000000    0.5000000000   -0.3669260008         -0.4713
N729       N    0.5333846315    0.5134446208   -0.3533844571          0.5171
N730       N    0.5336474876    0.5096634161   -0.3150380220          0.5189
H731       H    0.5533727696    0.4930338163   -0.3091457623         -0.4677
H732       H    0.5346900225    0.5396061062   -0.3570252065          0.4957
H733       H    0.4526372316    0.4904447807   -0.3351131709         -0.4643
H734       H    0.5026357156    0.4719432164   -0.3703938322         -0.4482
H735       H    0.4685407829    0.5336843069   -0.3326315111             0.5
H736       H    0.5023907436    0.4681489099   -0.3033837755         -0.4472
C691       C    0.5000000000    0.5000000000    0.3669260008          0.5211
C692       C    0.4991169626    0.4701497284    0.3482234933          0.5233
C693       C    0.4989955550    0.4684801833    0.3134111788         -0.4754
C694       C    0.4998498153    0.4967950748    0.2928401811          0.5237
C695       C    0.5004325456    0.5270548913    0.3108753045          0.5217
C696       C    0.5003741770    0.5286036839    0.3463998511          0.5206
N697       N    0.4995565597    0.4906476120    0.2585907453         -0.4748
F698       F    0.4981644307    0.4364683955    0.2993139823         -0.4733
H699       H    0.4984833718    0.4449496843    0.3610175483          0.5241
Br700     Br    0.5013223645    0.5729365086    0.3672735375          0.5178
H701       H    0.5009040800    0.5513250400    0.2964411977          0.5211
N702       N    0.5025551831    0.5146367483    0.2351474955          0.5228
C703       C    0.4965958492    0.5001991673    0.1978337322         -0.4707
C704       C    0.5053710852    0.5241405046    0.1658384330          0.5225
C705       C    0.5000000000    0.5000000000    0.1330739992         -0.4713
N706       N    0.5148050078    0.4671959881    0.1466155429          0.5171
N707       N    0.5110377969    0.4667779881    0.1849619780          0.5189
H708       H    0.4952327330    0.4463860707    0.1908542377         -0.4677
H709       H    0.5409980368    0.4669666489    0.1429747935          0.4957
H710       H    0.4885067614    0.5469301556    0.1648868291         -0.4643
H711       H    0.4720752095    0.4962136851    0.1296061678         -0.4482
H712       H    0.5323632325    0.5328167040    0.1673684889             0.5
H713       H    0.4682740417    0.4963025460    0.1966162245         -0.4472
C668       C    0.5000000000    0.8669260008    0.5000000000          0.5211
C669       C    0.5284858690    0.8482234933    0.5089651402          0.5233
C670       C    0.5300595225    0.8134111788    0.5095358725         -0.4754
C671       C    0.5030433788    0.7928401811    0.5010158477          0.5237
C672       C    0.4740817466    0.8108753045    0.4922283607          0.5217
C673       C    0.4725754217    0.8463998511    0.4918634621          0.5206
N674       N    0.5088795659    0.7585907453    0.5029693621         -0.4748
F675       F    0.5606396061    0.7993139823    0.5190387042         -0.4733
H676       H    0.5525644815    0.8610175483    0.5164259768          0.5241
Br677     Br    0.4301702079    0.8672735375    0.4788982687          0.5178
H678       H    0.4508539462    0.7964411977    0.4851762862          0.5211
N679       N    0.4866092305    0.7351474955    0.4935617818          0.5228
C680       C    0.4988828514    0.6978337322    0.5032217836         -0.4707
C681       C    0.4782289965    0.6658384330    0.4882681661          0.5225
C682       C    0.5000000000    0.6330739992    0.5000000000         -0.4713
N683       N    0.5355934474    0.6466155429    0.4946710270          0.5171
N684       N    0.5349715154    0.6849619780    0.4984099844          0.5189
H685       H    0.5502984496    0.6908542377    0.5191636690         -0.4677
H686       H    0.5429352207    0.6429747935    0.4695269277          0.4957
H687       H    0.4517128476    0.6648868291    0.4983014836         -0.4643
H688       H    0.4960518161    0.6296061678    0.5279023645         -0.4482
H689       H    0.4772179202    0.6673684889    0.4599339082             0.5
H690       H    0.4949328826    0.6966162245    0.5315362001         -0.4472
C645       C    0.5000000000    1.1330739992    0.5000000000          0.5211
C646       C    0.4702112203    1.1517765067    0.5021088094          0.5233
C647       C    0.4685480737    1.1865888212    0.5022987145         -0.4754
C648       C    0.4968039523    1.2071598189    0.5002817451          0.5237
C649       C    0.5270142703    1.1891246955    0.4984561613          0.5217
C650       C    0.5285641533    1.1536001489    0.4984508422          0.5206
N651       N    0.4906737307    1.2414092547    0.5008273461         -0.4748
F652       F    0.4365974702    1.2006860177    0.5044444693         -0.4733
H653       H    0.4450584915    1.1389824517    0.5037773098          0.5241
Br654     Br    0.5728205784    1.1327264625    0.4956818641          0.5178
H655       H    0.5512445478    1.2035588023    0.4969877890          0.5211
N656       N    0.5145193975    1.2648525045    0.4968455655          0.5228
C657       C    0.5003388723    1.3021662678    0.5033930924         -0.4707
C658       C    0.5238994252    1.3341615670    0.4936415415          0.5225
C659       C    0.5000000000    1.3669260008    0.5000000000         -0.4713
N660       N    0.4666153685    1.3533844571    0.4865553792          0.5171
N661       N    0.4663525124    1.3150380220    0.4903365839          0.5189
H662       H    0.4466272304    1.3091457623    0.5069661837         -0.4677
H663       H    0.4653099775    1.3570252065    0.4603938938          0.4957
H664       H    0.5473627684    1.3351131709    0.5095552193         -0.4643
H665       H    0.4973642844    1.3703938322    0.5280567836         -0.4482
H666       H    0.5314592171    1.3326315111    0.4663156931             0.5
H667       H    0.4976092564    1.3033837755    0.5318510901         -0.4472
C622       C    0.5000000000    0.6330739992    0.0000000000          0.5211
C623       C    0.5298134645    0.6517765067   -0.0017250521          0.5233
C624       C    0.5314789186    0.6865888212   -0.0018935255         -0.4754
C625       C    0.5031994107    0.7071598189   -0.0002405670          0.5237
C626       C    0.4729680898    0.6891246955    0.0011958548          0.5217
C627       C    0.4714182668    0.6536001489    0.0011812160          0.5206
N628       N    0.5093361496    0.7414092547   -0.0007071855         -0.4748
F629       F    0.5634545034    0.7006860177   -0.0036276825         -0.4733
H630       H    0.5549855928    0.6389824517   -0.0030695288          0.5241
Br631     Br    0.4271298555    0.6327264625    0.0033800859          0.5178
H632       H    0.4487209133    0.7035588023    0.0023520983          0.5211
N633       N    0.4854411874    0.7648525045    0.0029672104          0.5228
C634       C    0.4997048478    0.8021662678   -0.0033971746         -0.4707
C635       C    0.4760206800    0.8341615670    0.0060501845          0.5225
C636       C    0.5000000000    0.8669260008    0.0000000000         -0.4713
N637       N    0.5332087407    0.8533844571    0.0138733915          0.5171
N638       N    0.5335202646    0.8150380220    0.0100958851          0.5189
H639       H    0.5534580463    0.8091457623   -0.0062783386         -0.4677
H640       H    0.5341771486    0.8570252065    0.0400495171          0.4957
H641       H    0.4527641986    0.8351131709   -0.0101643054         -0.4643
H642       H    0.5029967772    0.8703938322   -0.0280205180         -0.4482
H643       H    0.4681096469    0.8326315111    0.0332764219             0.5
H644       H    0.5028006837    0.8033837755   -0.0318176644         -0.4472
C599       C    0.5000000000    1.1330739992    0.0000000000          0.5211
C600       C    0.4843550004    1.1517765067   -0.0254372258          0.5233
C601       C    0.4834175318    1.1865888212   -0.0268240471         -0.4754
C602       C    0.4982722423    1.2071598189   -0.0027035078          0.5237
C603       C    0.5138610499    1.1891246955    0.0232384495          0.5217
C604       C    0.5145824777    1.1536001489    0.0246102029          0.5206
N605       N    0.4949536864    1.2414092547   -0.0078866038         -0.4748
F606       F    0.4667400832    1.2006860177   -0.0541609825         -0.4733
H607       H    0.4712442502    1.1389824517   -0.0469674811          0.5241
Br608     Br    0.5375030862    1.1327264625    0.0625699725          0.5178
H609       H    0.5263677866    1.2035588023    0.0440433528          0.5211
N610       N    0.5095110964    1.2648525045    0.0114150079          0.5228
C611       C    0.4971481987    1.3021662678    0.0018695292         -0.4707
C612       C    0.5166895653    1.3341615670    0.0182502309          0.5225
C613       C    0.5000000000    1.3669260008    0.0000000000         -0.4713
N614       N    0.4964827153    1.3533844571   -0.0358178748          0.5171
N615       N    0.4930085349    1.3150380220   -0.0343023972          0.5189
H616       H    0.4691422471    1.3091457623   -0.0441019198         -0.4677
H617       H    0.5190753031    1.3570252065   -0.0490731507          0.4957
H618       H    0.5134297491    1.3351131709    0.0464131003         -0.4643
H619       H    0.4739044505    1.3703938322    0.0106373117         -0.4482
H620       H    0.5444140650    1.3326315111    0.0123168872             0.5
H621       H    0.4706534881    1.3033837755    0.0126091170         -0.4472
C576       C    0.5000000000    1.0000000000   -0.1330739992          0.5211
C577       C    0.4976274552    0.9702310648   -0.1517765067          0.5233
C578       C    0.4974228282    0.9685696653   -0.1865888212         -0.4754
C579       C    0.4996899609    0.9968065729   -0.2071598189          0.5237
C580       C    0.5017830244    1.0269995382   -0.1891246955          0.5217
C581       C    0.5018020695    1.0285493133   -0.1536001489          0.5206
N582       N    0.4990900902    0.9906814237   -0.2414092547         -0.4748
F583       F    0.4949941938    0.9366393183   -0.2006860177         -0.4733
H584       H    0.4957362604    0.9450940991   -0.1389824517          0.5241
Br585     Br    0.5049628868    1.0727794799   -0.1327264625          0.5178
H586       H    0.5034659295    1.0512158611   -0.2035588023          0.5211
N587       N    0.5032828988    1.0144908915   -0.2648525045          0.5228
C588       C    0.4966100418    1.0003689092   -0.3021662678         -0.4707
C589       C    0.5065698694    1.0238421756   -0.3341615670          0.5225
C590       C    0.5000000000    1.0000000000   -0.3669260008         -0.4713
N591       N    0.5131484295    0.9664976083   -0.3533844571          0.5171
N592       N    0.5093650452    0.9662682499   -0.3150380220          0.5189
H593       H    0.4925614047    0.9466910181   -0.3091457623         -0.4677
H594       H    0.5392973280    0.9649605748   -0.3570252065          0.4957
H595       H    0.4908646139    1.0474455347   -0.3351131709         -0.4643
H596       H    0.4719209741    0.9976128668   -0.3703938322         -0.4482
H597       H    0.5339615979    1.0311596654   -0.3326315111             0.5
H598       H    0.4681289859    0.9978914327   -0.3033837755         -0.4472
C553       C    0.5000000000    1.0000000000    0.1330739992          0.5211
C554       C    0.5008830374    0.9701497284    0.1517765067          0.5233
C555       C    0.5010044450    0.9684801833    0.1865888212         -0.4754
C556       C    0.5001501847    0.9967950748    0.2071598189          0.5237
C557       C    0.4995674544    1.0270548913    0.1891246955          0.5217
C558       C    0.4996258230    1.0286036839    0.1536001489          0.5206
N559       N    0.5004434403    0.9906476120    0.2414092547         -0.4748
F560       F    0.5018355693    0.9364683955    0.2006860177         -0.4733
H561       H    0.5015166282    0.9449496843    0.1389824517          0.5241
Br562     Br    0.4986776355    1.0729365086    0.1327264625          0.5178
H563       H    0.4990959200    1.0513250400    0.2035588023          0.5211
N564       N    0.4974448169    1.0146367483    0.2648525045          0.5228
C565       C    0.5034041508    1.0001991673    0.3021662678         -0.4707
C566       C    0.4946289148    1.0241405046    0.3341615670          0.5225
C567       C    0.5000000000    1.0000000000    0.3669260008         -0.4713
N568       N    0.4851949922    0.9671959881    0.3533844571          0.5171
N569       N    0.4889622031    0.9667779881    0.3150380220          0.5189
H570       H    0.5047672670    0.9463860707    0.3091457623         -0.4677
H571       H    0.4590019632    0.9669666489    0.3570252065          0.4957
H572       H    0.5114932386    1.0469301556    0.3351131709         -0.4643
H573       H    0.5279247905    0.9962136851    0.3703938322         -0.4482
H574       H    0.4676367675    1.0328167040    0.3326315111             0.5
H575       H    0.5317259583    0.9963025460    0.3033837755         -0.4472
C530       C    0.8669260008    0.5000000000    0.5000000000          0.5211
C531       C    0.8482234933    0.4701508503    0.5009201834          0.5233
C532       C    0.8134111788    0.4684814577    0.5010436686         -0.4754
C533       C    0.7928401811    0.4967952642    0.5001541729          0.5237
C534       C    0.8108753045    0.5270543321    0.4995337867          0.5217
C535       C    0.8463998511    0.5286031961    0.4995902279          0.5206
N536       N    0.7585907453    0.4906481711    0.5004550784         -0.4748
F537       F    0.7993139823    0.4364707289    0.5019146289         -0.4733
H538       H    0.8610175483    0.4449516142    0.5015851336          0.5241
Br539     Br    0.8672735375    0.5729348065    0.4985868718          0.5178
H540       H    0.7964411977    0.5513238752    0.4990320500          0.5211
N541       N    0.7351474955    0.5146335572    0.4974266044          0.5228
C542       C    0.6978337322    0.5002034034    0.5034039003         -0.4707
C543       C    0.6658384330    0.5241338019    0.4945988776          0.5225
C544       C    0.6330739992    0.5000000000    0.5000000000         -0.4713
N545       N    0.6466155429    0.4671775897    0.4852358261          0.5171
N546       N    0.6849619780    0.4667642780    0.4890035543          0.5189
H547       H    0.6908542377    0.4463920448    0.5048339823         -0.4677
H548       H    0.6429747935    0.4669156550    0.4590431028          0.4957
H549       H    0.6648868291    0.5469444219    0.5114348282         -0.4643
H550       H    0.6296061678    0.4962484386    0.5279294807         -0.4482
H551       H    0.6673684889    0.5327764046    0.4675959543             0.5
H552       H    0.6966162245    0.4963420298    0.5317305350         -0.4472
C507       C    1.1330739992    0.5000000000    0.5000000000          0.5211
C508       C    1.1517765067    0.5298491497    0.5009201834          0.5233
C509       C    1.1865888212    0.5315185423    0.5010436686         -0.4754
C510       C    1.2071598189    0.5032047358    0.5001541729          0.5237
C511       C    1.1891246955    0.4729456679    0.4995337867          0.5217
C512       C    1.1536001489    0.4713968039    0.4995902279          0.5206
N513       N    1.2414092547    0.5093518289    0.5004550784         -0.4748
F514       F    1.2006860177    0.5635292711    0.5019146289         -0.4733
H515       H    1.1389824517    0.5550483858    0.5015851336          0.5241
Br516     Br    1.1327264625    0.4270651935    0.4985868718          0.5178
H517       H    1.2035588023    0.4486761248    0.4990320500          0.5211
N518       N    1.2648525045    0.4853664428    0.4974266044          0.5228
C519       C    1.3021662678    0.4997965966    0.5034039003         -0.4707
C520       C    1.3341615670    0.4758661981    0.4945988776          0.5225
C521       C    1.3669260008    0.5000000000    0.5000000000         -0.4713
N522       N    1.3533844571    0.5328224103    0.4852358261          0.5171
N523       N    1.3150380220    0.5332357220    0.4890035543          0.5189
H524       H    1.3091457623    0.5536079552    0.5048339823         -0.4677
H525       H    1.3570252065    0.5330843450    0.4590431028          0.4957
H526       H    1.3351131709    0.4530555781    0.5114348282         -0.4643
H527       H    1.3703938322    0.5037515614    0.5279294807         -0.4482
H528       H    1.3326315111    0.4672235954    0.4675959543             0.5
H529       H    1.3033837755    0.5036579702    0.5317305350         -0.4472
C484       C    0.8669260008    0.5000000000    0.0000000000          0.5211
C485       C    0.8482234933    0.5049969458   -0.0294422996          0.5233
C486       C    0.8134111788    0.5052058121   -0.0311031715         -0.4754
C487       C    0.7928401811    0.5004822083   -0.0031719988          0.5237
C488       C    0.8108753045    0.4951103674    0.0266128866          0.5217
C489       C    0.8463998511    0.4947489430    0.0281200488          0.5206
N490       N    0.7585907453    0.5014020654   -0.0092573222         -0.4748
F491       F    0.7993139823    0.5106781954   -0.0626546904         -0.4733
H492       H    0.8610175483    0.5093251451   -0.0542759532          0.5241
Br493     Br    0.8672735375    0.4869714125    0.0717756145          0.5178
H494       H    0.7964411977    0.4908059055    0.0505029278          0.5211
N495       N    0.7351474955    0.4996306639    0.0148535165          0.5228
C496       C    0.6978337322    0.4966230355   -0.0004733089         -0.4707
C497       C    0.6658384330    0.5005251212    0.0247252253          0.5225
C498       C    0.6330739992    0.5000000000    0.0000000000         -0.4713
N499       N    0.6466155429    0.5209595617   -0.0292572764          0.5171
N500       N    0.6849619780    0.5173478242   -0.0304070392          0.5189
H501       H    0.6908542377    0.5058557049   -0.0535059900         -0.4677
H502       H    0.6429747935    0.5466874618   -0.0243376707          0.4957
H503       H    0.6648868291    0.4795132380    0.0437587320         -0.4643
H504       H    0.6296061678    0.4733627688   -0.0091971743         -0.4482
H505       H    0.6673684889    0.5252874702    0.0385338647             0.5
H506       H    0.6966162245    0.4696181850   -0.0098566178         -0.4472
C461       C    1.1330739992    0.5000000000    0.0000000000          0.5211
C462       C    1.1517765067    0.5072467836   -0.0289707197          0.5233
C463       C    1.1865888212    0.5077224533   -0.0305756679         -0.4754
C464       C    1.2071598189    0.5008321578   -0.0030986472          0.5237
C465       C    1.1891246955    0.4937911418    0.0263363688          0.5217
C466       C    1.1536001489    0.4935169143    0.0278618080          0.5206
N467       N    1.2414092547    0.5024334066   -0.0090411467         -0.4748
F468       F    1.2006860177    0.5153808159   -0.0616689921         -0.4733
H469       H    1.1389824517    0.5132553327   -0.0534521616          0.5241
Br470     Br    1.1327264625    0.4831090555    0.0709660407          0.5178
H471       H    1.2035588023    0.4881397793    0.0499440914          0.5211
N472       N    1.2648525045    0.4943735295    0.0137515886          0.5228
C473       C    1.3021662678    0.5032827869    0.0009226161         -0.4707
C474       C    1.3341615670    0.4895901829    0.0224331947          0.5225
C475       C    1.3669260008    0.5000000000    0.0000000000         -0.4713
N476       N    1.3533844571    0.4925534644   -0.0352113697          0.5171
N477       N    1.3150380220    0.4963229064   -0.0348139917          0.5189
H478       H    1.3091457623    0.5161235514   -0.0513537860         -0.4709
H479       H    1.3570252065    0.4670155553   -0.0410373941          0.4957
H480       H    1.3351131709    0.5011901900    0.0483023549         -0.4643
H481       H    1.3703938322    0.5280884416    0.0022736645         -0.4482
H482       H    1.3326315111    0.4613669883    0.0251357372             0.5
H483       H    1.3033837755    0.5317826507    0.0031734379         -0.4472
C438       C    1.0000000000    0.5000000000   -0.3669260008          0.5211
C439       C    1.0297887797    0.5021088094   -0.3482234933          0.5233
C440       C    1.0314519263    0.5022987145   -0.3134111788         -0.4754
C441       C    1.0031960477    0.5002817451   -0.2928401811          0.5237
C442       C    0.9729857297    0.4984561613   -0.3108753045          0.5217
C443       C    0.9714358467    0.4984508422   -0.3463998511          0.5206
N444       N    1.0093262693    0.5008273461   -0.2585907453         -0.4748
F445       F    1.0634025298    0.5044444693   -0.2993139823         -0.4733
H446       H    1.0549415085    0.5037773098   -0.3610175483          0.5241
Br447     Br    0.9271794216    0.4956818641   -0.3672735375          0.5178
H448       H    0.9487554522    0.4969877890   -0.2964411977          0.5211
N449       N    0.9854806025    0.4968455655   -0.2351474955          0.5228
C450       C    0.9996611277    0.5033930924   -0.1978337322         -0.4707
C451       C    0.9761005748    0.4936415415   -0.1658384330          0.5225
C452       C    1.0000000000    0.5000000000   -0.1330739992         -0.4713
N453       N    1.0333846315    0.4865553792   -0.1466155429          0.5171
N454       N    1.0336474876    0.4903365839   -0.1849619780          0.5189
H455       H    1.0533727696    0.5069661837   -0.1908542377         -0.4677
H456       H    1.0346900225    0.4603938938   -0.1429747935          0.4957
H457       H    0.9526372316    0.5095552193   -0.1648868291         -0.4643
H458       H    1.0026357156    0.5280567836   -0.1296061678         -0.4482
H459       H    0.9685407829    0.4663156931   -0.1673684889             0.5
H460       H    1.0023907436    0.5318510901   -0.1966162245         -0.4472
C415       C    1.0000000000    0.5000000000    0.3669260008          0.5211
C416       C    1.0297887797    0.4978911906    0.3482234933          0.5233
C417       C    1.0314519263    0.4977012855    0.3134111788         -0.4754
C418       C    1.0031960477    0.4997182549    0.2928401811          0.5237
C419       C    0.9729857297    0.5015438387    0.3108753045          0.5217
C420       C    0.9714358467    0.5015491578    0.3463998511          0.5206
N421       N    1.0093262693    0.4991726539    0.2585907453         -0.4748
F422       F    1.0634025298    0.4955555307    0.2993139823         -0.4733
H423       H    1.0549415085    0.4962226902    0.3610175483          0.5241
Br424     Br    0.9271794216    0.5043181359    0.3672735375          0.5178
H425       H    0.9487554522    0.5030122110    0.2964411977          0.5211
N426       N    0.9854806025    0.5031544345    0.2351474955          0.5228
C427       C    0.9996611277    0.4966069076    0.1978337322         -0.4707
C428       C    0.9761005748    0.5063584585    0.1658384330          0.5225
C429       C    1.0000000000    0.5000000000    0.1330739992         -0.4713
N430       N    1.0333846315    0.5134446208    0.1466155429          0.5171
N431       N    1.0336474876    0.5096634161    0.1849619780          0.5189
H432       H    1.0533727696    0.4930338163    0.1908542377         -0.4677
H433       H    1.0346900225    0.5396061062    0.1429747935          0.4957
H434       H    0.9526372316    0.4904447807    0.1648868291         -0.4643
H435       H    1.0026357156    0.4719432164    0.1296061678         -0.4482
H436       H    0.9685407829    0.5336843069    0.1673684889             0.5
H437       H    1.0023907436    0.4681489099    0.1966162245         -0.4472
C392       C    1.0000000000   -0.3669260008    0.5000000000          0.5211
C393       C    0.9702112203   -0.3482234933    0.5021088094          0.5233
C394       C    0.9685480737   -0.3134111788    0.5022987145         -0.4754
C395       C    0.9968039523   -0.2928401811    0.5002817451          0.5237
C396       C    1.0270142703   -0.3108753045    0.4984561613          0.5217
C397       C    1.0285641533   -0.3463998511    0.4984508422          0.5206
N398       N    0.9906737307   -0.2585907453    0.5008273461         -0.4748
F399       F    0.9365974702   -0.2993139823    0.5044444693         -0.4733
H400       H    0.9450584915   -0.3610175483    0.5037773098          0.5241
Br401     Br    1.0728205784   -0.3672735375    0.4956818641          0.5178
H402       H    1.0512445478   -0.2964411977    0.4969877890          0.5211
N403       N    1.0145193975   -0.2351474955    0.4968455655          0.5228
C404       C    1.0003388723   -0.1978337322    0.5033930924         -0.4707
C405       C    1.0238994252   -0.1658384330    0.4936415415          0.5225
C406       C    1.0000000000   -0.1330739992    0.5000000000         -0.4713
N407       N    0.9666153685   -0.1466155429    0.4865553792          0.5171
N408       N    0.9663525124   -0.1849619780    0.4903365839          0.5189
H409       H    0.9466272304   -0.1908542377    0.5069661837         -0.4677
H410       H    0.9653099775   -0.1429747935    0.4603938938          0.4957
H411       H    1.0473627684   -0.1648868291    0.5095552193         -0.4643
H412       H    0.9973642844   -0.1296061678    0.5280567836         -0.4482
H413       H    1.0314592171   -0.1673684889    0.4663156931             0.5
H414       H    0.9976092564   -0.1966162245    0.5318510901         -0.4472
C369       C    1.0000000000    0.3669260008    0.5000000000          0.5211
C370       C    0.9934263778    0.3482234933    0.4708691579          0.5233
C371       C    0.9931284638    0.3134111788    0.4692219275         -0.4754
C372       C    0.9993478455    0.2928401811    0.4968585361          0.5237
C373       C    1.0063142499    0.3108753045    0.5263112996          0.5217
C374       C    1.0067562321    0.3463998511    0.5277968356          0.5206
N375       N    0.9981019471    0.2585907453    0.4908315107         -0.4748
F376       F    0.9859666225    0.2993139823    0.4380104976         -0.4733
H377       H    0.9877684658    0.3610175483    0.4463043112          0.5241
Br378     Br    1.0168710459    0.3672735375    0.5709707739          0.5178
H379       H    1.0118976953    0.2964411977    0.5499351774          0.5211
N380       N    1.0011678785    0.2351474955    0.5148121376          0.5228
C381       C    1.0033466115    0.1978337322    0.4993457054         -0.4707
C382       C    1.0008057865    0.1658384330    0.5247176703          0.5225
C383       C    1.0000000000    0.1330739992    0.5000000000         -0.4713
N384       N    0.9774968313    0.1466155429    0.4719126568          0.5171
N385       N    0.9810414846    0.1849619780    0.4705702577          0.5189
H386       H    0.9912743037    0.1908542377    0.4468865133         -0.4677
H387       H    0.9520708491    0.1429747935    0.4782092266          0.4957
H388       H    1.0228111910    0.1648868291    0.5425932343         -0.4643
H389       H    1.0261038754    0.1296061678    0.4893831365         -0.4482
H390       H    0.9768221621    0.1673684889    0.5398384576             0.5
H391       H    1.0298075604    0.1966162245    0.4885231999         -0.4472
C346       C    0.6330739992   -0.0000000000    0.5000000000          0.5211
C347       C    0.6517765067   -0.0265036662    0.4862386719          0.5233
C348       C    0.6865888212   -0.0279547509    0.4854041219         -0.4754
C349       C    0.7071598189   -0.0028215578    0.4984726125          0.5237
C350       C    0.6891246955    0.0241814435    0.5121413355          0.5217
C351       C    0.6536001489    0.0256018508    0.5127615037          0.5206
N352       N    0.7414092547   -0.0082314213    0.4955382174         -0.4748
F353       F    0.7006860177   -0.0564279227    0.4707506646         -0.4733
H354       H    0.6389824517   -0.0489270540    0.4747219303          0.5241
Br355     Br    0.6327264625    0.0651221814    0.5328722440          0.5178
H356       H    0.7035588023    0.0458376325    0.5231081920          0.5211
N357       N    0.7648525045    0.0120739679    0.5086592529          0.5228
C358       C    0.8021662678    0.0016580447    0.4970202688         -0.4707
C359       C    0.8341615670    0.0194112153    0.5153237475          0.5225
C360       C    0.8669260008   -0.0000000000    0.5000000000         -0.4713
N361       N    0.8533844571   -0.0359785616    0.4990864615          0.5171
N362       N    0.8150380220   -0.0347187211    0.4955116323          0.5189
H363       H    0.8091457623   -0.0462212813    0.4724178789         -0.4677
H364       H    0.8570252065   -0.0475624981    0.5225798601          0.4957
H365       H    0.8351131709    0.0472639741    0.5100324868         -0.4643
H366       H    0.8703938322    0.0087191087    0.4732024769         -0.4482
H367       H    0.8326315111    0.0155017123    0.5434052047             0.5
H368       H    0.8033837755    0.0104502472    0.4698172246         -0.4472
C323       C    1.1330739992   -0.0000000000    0.5000000000          0.5211
C324       C    1.1517765067   -0.0229737643    0.4809205706          0.5233
C325       C    1.1865888212   -0.0242143480    0.4797967056         -0.4754
C326       C    1.2071598189   -0.0024325132    0.4979078766          0.5237
C327       C    1.1891246955    0.0210488603    0.5170029326          0.5217
C328       C    1.1536001489    0.0223050268    0.5179107934          0.5206
N329       N    1.2414092547   -0.0070951983    0.4938908296         -0.4748
F330       F    1.2006860177   -0.0489230386    0.4594269747         -0.4733
H331       H    1.1389824517   -0.0424374629    0.4649015789          0.5241
Br332     Br    1.1327264625    0.0566487756    0.5459608437          0.5178
H333       H    1.2035588023    0.0398797438    0.5323215582          0.5211
N334       N    1.2648525045    0.0099579443    0.5110273617          0.5228
C335       C    1.3021662678    0.0022534105    0.4974406931         -0.4707
C336       C    1.3341615670    0.0157112831    0.5190989032          0.5225
C337       C    1.3669260008   -0.0000000000    0.5000000000         -0.4713
N338       N    1.3533844571   -0.0349625866    0.4914613240          0.5171
N339       N    1.3150380220   -0.0329718168    0.4882358880          0.5189
H340       H    1.3091457623   -0.0393038495    0.4632251763         -0.4677
H341       H    1.3570252065   -0.0512746322    0.5119563120          0.4957
H342       H    1.3351131709    0.0440522955    0.5198476523         -0.4643
H343       H    1.3703938322    0.0142148351    0.4756675409         -0.4482
H344       H    1.3326315111    0.0059233351    0.5457080844             0.5
H345       H    1.3033837755    0.0166258492    0.4727275096         -0.4472
C300       C    0.0000000000   -0.1330739992   -0.0000000000          0.5211
C301       C   -0.0219988285   -0.1517765067   -0.0201957921          0.5233
C302       C   -0.0231821228   -0.1865888212   -0.0213798254         -0.4754
C303       C   -0.0023257150   -0.2071598189   -0.0022102378          0.5237
C304       C    0.0201793223   -0.1891246955    0.0180263472          0.5217
C305       C    0.0213888974   -0.1536001489    0.0189954155          0.5206
N306       N   -0.0067833484   -0.2414092547   -0.0064536800         -0.4748
F307       F   -0.0468497214   -0.2006860177   -0.0429504096         -0.4733
H308       H   -0.0406437604   -0.1389824517   -0.0371607611          0.5241
Br309     Br    0.0542986225   -0.1327264625    0.0487149107          0.5178
H310       H    0.0382269676   -0.2035588023    0.0342604151          0.5211
N311       N    0.0093985487   -0.2648525045    0.0115078514          0.5228
C312       C    0.0023776171   -0.3021662678   -0.0024443500         -0.4707
C313       C    0.0147443257   -0.3341615670    0.0198549082          0.5225
C314       C    0.0000000000   -0.3669260008    0.0000000000         -0.4713
N315       N   -0.0344958728   -0.3533844571   -0.0102628557          0.5171
N316       N   -0.0323475224   -0.3150380220   -0.0133855456          0.5189
H317       H   -0.0374308304   -0.3091457623   -0.0386796223         -0.4677
H318       H   -0.0518047031   -0.3570252065    0.0093975553          0.4957
H319       H    0.0430132830   -0.3351131709    0.0220088967         -0.4643
H320       H    0.0154046019   -0.3703938322   -0.0235972105         -0.4482
H321       H    0.0036481974   -0.3326315111    0.0459456802             0.5
H322       H    0.0179585185   -0.3033837755   -0.0264139965         -0.4472
C277       C   -0.0000000000    0.1330739992    0.0000000000          0.5211
C278       C    0.0202629864    0.1517765067   -0.0219369518          0.5233
C279       C    0.0213448730    0.1865888212   -0.0232143091         -0.4754
C280       C    0.0021360209    0.2071598189   -0.0023940584          0.5237
C281       C   -0.0186281031    0.1891246955    0.0196251882          0.5217
C282       C   -0.0197538643    0.1536001489    0.0206904709          0.5206
N283       N    0.0062294856    0.2414092547   -0.0069898004         -0.4748
F284       F    0.0431578850    0.2006860177   -0.0466586653         -0.4733
H285       H    0.0374492073    0.1389824517   -0.0403781414          0.5241
Br286     Br   -0.0501073589    0.1327264625    0.0530163703          0.5178
H287       H   -0.0352791849    0.2035588023    0.0372888215          0.5211
N288       N   -0.0084200714    0.2648525045    0.0122419671          0.5228
C289       C   -0.0025706293    0.3021662678   -0.0022404855         -0.4707
C290       C   -0.0130611101    0.3341615670    0.0210004743          0.5225
C291       C    0.0000000000    0.3669260008    0.0000000000         -0.4713
N292       N    0.0335347523    0.3533844571   -0.0130656739          0.5171
N293       N    0.0311368131    0.3150380220   -0.0160010596          0.5189
H294       H    0.0341222258    0.3091457623   -0.0416275624         -0.4677
H295       H    0.0524021702    0.3570252065    0.0051042988          0.4957
H296       H   -0.0410570781    0.3351131709    0.0254725417         -0.4643
H297       H   -0.0172934805    0.3703938322   -0.0222500705         -0.4482
H298       H    0.0001436165    0.3326315111    0.0460900667             0.5
H299       H   -0.0200704481    0.3033837755   -0.0248472274         -0.4472
C254       C   -0.1330739992   -0.0000000000    0.0000000000          0.5211
C255       C   -0.1517765067    0.0116557065    0.0274947809          0.5233
C256       C   -0.1865888212    0.0123747267    0.0290064457         -0.4754
C257       C   -0.2071598189    0.0013030354    0.0029319276          0.5237
C258       C   -0.1891246955   -0.0102214640   -0.0250534611          0.5217
C259       C   -0.1536001489   -0.0107291422   -0.0265178478          0.5206
N260       N   -0.2414092547    0.0038072552    0.0085538651         -0.4748
F261       F   -0.2006860177    0.0247664884    0.0585342219         -0.4733
H262       H   -0.1389824517    0.0213913726    0.0507468876          0.5241
Br263     Br   -0.1327264625   -0.0277013758   -0.0674841960          0.5178
H264       H   -0.2035588023   -0.0194686564   -0.0474978790          0.5211
N265       N   -0.2648525045   -0.0076927616   -0.0127116002          0.5228
C266       C   -0.3021662678    0.0030997950   -0.0014209790         -0.4707
C267       C   -0.3341615670   -0.0137656696   -0.0205455314          0.5225
C268       C   -0.3669260008   -0.0000000000    0.0000000000         -0.4713
N269       N   -0.3533844571   -0.0018908797    0.0359404511          0.5171
N270       N   -0.3150380220    0.0017711982    0.0349628073          0.5189
H271       H   -0.3091457623    0.0238991259    0.0482287469         -0.4677
H272       H   -0.3570252065   -0.0262149806    0.0456597865          0.4957
H273       H   -0.3351131709   -0.0063215861   -0.0479016867         -0.4643
H274       H   -0.3703938322    0.0273951089   -0.0066059150         -0.4482
H275       H   -0.3326315111   -0.0420662907   -0.0188345976             0.5
H276       H   -0.3033837755    0.0309048853   -0.0080681880         -0.4472
C231       C    0.1330739992   -0.0000000000    0.0000000000          0.5211
C232       C    0.1517765067   -0.0080447853    0.0287593446          0.5233
C233       C    0.1865888212   -0.0085646351    0.0303505318         -0.4754
C234       C    0.2071598189   -0.0009174886    0.0030744619          0.5237
C235       C    0.1891246955    0.0069344411   -0.0261546892          0.5217
C236       C    0.1536001489    0.0072507280   -0.0276719657          0.5206
N237       N    0.2414092547   -0.0026823803    0.0089704313         -0.4748
F238       F    0.2006860177   -0.0170795122    0.0612202936         -0.4733
H239       H    0.1389824517   -0.0147277223    0.0530653523          0.5241
Br240     Br    0.1327264625    0.0188460406   -0.0704720490          0.5178
H241       H    0.2035588023    0.0132361779   -0.0495971843          0.5211
N242       N    0.2648525045    0.0060044241   -0.0135908150          0.5228
C243       C    0.3021662678   -0.0032560309   -0.0010130021         -0.4707
C244       C    0.3341615670    0.0110259086   -0.0221368891          0.5225
C245       C    0.3669260008   -0.0000000000    0.0000000000         -0.4713
N246       N    0.3533844571    0.0064704241    0.0354037436          0.5171
N247       N    0.3150380220    0.0027134062    0.0349023275          0.5189
H248       H    0.3091457623   -0.0175368446    0.0508884990         -0.4677
H249       H    0.3570252065    0.0318375406    0.0419334272          0.4957
H250       H    0.3351131709    0.0001453748   -0.0483167974         -0.4643
H251       H    0.3703938322   -0.0280148640   -0.0030491795         -0.4482
H252       H    0.3326315111    0.0393130199   -0.0240582906             0.5
H253       H    0.3033837755   -0.0316827913   -0.0040507196         -0.4472
C208       C   -0.0000000000    0.0000000000   -0.1330739992          0.5211
C209       C   -0.0297720240    0.0023334649   -0.1517765067          0.5233
C210       C   -0.0314336907    0.0025359107   -0.1865888212         -0.4754
C211       C   -0.0031938314    0.0003058468   -0.2071598189          0.5237
C212       C    0.0270018555   -0.0017475804   -0.1891246955          0.5217
C213       C    0.0285516542   -0.0017645911   -0.1536001489          0.5206
N214       N   -0.0093197628    0.0008976765   -0.2414092547         -0.4748
F215       F   -0.0633671983    0.0049226279   -0.2006860177         -0.4733
H216       H   -0.0549114506    0.0041916606   -0.1389824517          0.5241
Br217     Br    0.0727859320   -0.0048673444   -0.1327264625          0.5178
H218       H    0.0512203667   -0.0033986952   -0.2035588023          0.5211
N219       N    0.0144951885   -0.0032638737   -0.2648525045          0.5228
C220       C    0.0003644589    0.0033904395   -0.3021662678         -0.4707
C221       C    0.0238507793   -0.0065385659   -0.3341615670          0.5225
C222       C    0.0000000000    0.0000000000   -0.3669260008         -0.4713
N223       N   -0.0334851028   -0.0131923970   -0.3533844571          0.5171
N224       N   -0.0337194275   -0.0094093170   -0.3150380220          0.5189
H225       H   -0.0533187006    0.0073686098   -0.3091457623         -0.4677
H226       H   -0.0349878092   -0.0393432906   -0.3570252065          0.4957
H227       H    0.0474335017    0.0091976603   -0.3351131709         -0.4643
H228       H   -0.0024239907    0.0280758681   -0.3703938322         -0.4482
H229       H    0.0312042201   -0.0339206652   -0.3326315111             0.5
H230       H   -0.0021504027    0.0318682187   -0.3033837755         -0.4472
C185       C    0.0000000000   -0.0000000000    0.1330739992          0.5211
C186       C    0.0297689352    0.0023725448    0.1517765067          0.5233
C187       C    0.0314303347    0.0025771718    0.1865888212         -0.4754
C188       C    0.0031934271    0.0003100391    0.2071598189          0.5237
C189       C   -0.0269995382   -0.0017830244    0.1891246955          0.5217
C190       C   -0.0285493133   -0.0018020695    0.1536001489          0.5206
N191       N    0.0093185763    0.0009099098    0.2414092547         -0.4748
F192       F    0.0633606817    0.0050058062    0.2006860177         -0.4733
H193       H    0.0549059009    0.0042637396    0.1389824517          0.5241
Br194     Br   -0.0727794799   -0.0049628868    0.1327264625          0.5178
H195       H   -0.0512158611   -0.0034659295    0.2035588023          0.5211
N196       N   -0.0144908915   -0.0032828988    0.2648525045          0.5228
C197       C   -0.0003689092    0.0033899582    0.3021662678         -0.4707
C198       C   -0.0238421756   -0.0065698694    0.3341615670          0.5225
C199       C    0.0000000000    0.0000000000    0.3669260008         -0.4713
N200       N    0.0335023917   -0.0131484295    0.3533844571          0.5171
N201       N    0.0337317501   -0.0093650452    0.3150380220          0.5189
H202       H    0.0533089819    0.0074385953    0.3091457623         -0.4677
H203       H    0.0350394252   -0.0392973280    0.3570252065          0.4957
H204       H   -0.0474455347    0.0091353861    0.3351131709         -0.4643
H205       H    0.0023871332    0.0280790259    0.3703938322         -0.4482
H206       H   -0.0311596654   -0.0339615979    0.3326315111             0.5
H207       H    0.0021085673    0.0318710141    0.3033837755         -0.4472
loop_
_geom_bond_atom_site_label_1
_geom_bond_atom_site_label_2
_geom_bond_distance
_geom_bond_site_symmetry_2
_ccdc_geom_bond_type
Zn1          O5 1.942       .   S
Zn1          O6 1.922       .   S
Zn1         O10 1.922       .   S
Zn1         O17 1.922       .   S
Zn2          O5 1.942       .   S
Zn2          O7 1.922       .   S
Zn2          O9 1.922       .   S
Zn2         O13 1.922       .   S
Zn3          O5 1.942       .   S
Zn3          O8 1.922       .   S
Zn3         O11 1.922       .   S
Zn3         O14 1.922       .   S
Zn4          O5 1.942       .   S
Zn4         O12 1.922       .   S
Zn4         O15 1.922       .   S
Zn4         O16 1.922       .   S
O6          C18 1.304       .   A
O7          C19 1.304       .   A
O8          C20 1.304       .   A
O9          C18 1.304       .   A
O10         C20 1.304       .   A
O11         C19 1.304       .   A
O12         C21 1.304       .   A
O13         C22 1.304       .   A
O14         C21 1.304       .   A
O15         C22 1.304       .   A
O16         C23 1.304       .   A
O17         C23 1.304       .   A
C18        C277 1.540       .   S
C19        C185 1.540       .   S
C20        C254 1.540       .   S
C21        C300 1.540       .   S
C22        C231 1.540       .   S
C23        C208 1.540       .   S
Zn24        O28 1.942       .   S
Zn24        O29 1.922       .   S
Zn24        O33 1.922       .   S
Zn24        O40 1.922       .   S
Zn25        O28 1.942       .   S
Zn25        O30 1.922       .   S
Zn25        O32 1.922       .   S
Zn25        O36 1.922       .   S
Zn26        O28 1.942       .   S
Zn26        O31 1.922       .   S
Zn26        O34 1.922       .   S
Zn26        O37 1.922       .   S
Zn27        O28 1.942       .   S
Zn27        O35 1.922       .   S
Zn27        O38 1.922       .   S
Zn27        O39 1.922       .   S
O29         C41 1.304       .   A
O30         C42 1.304       .   A
O31         C43 1.304       .   A
O32         C41 1.304       .   A
O33         C43 1.304       .   A
O34         C42 1.304       .   A
O35         C44 1.304       .   A
O36         C45 1.304       .   A
O37         C44 1.304       .   A
O38         C45 1.304       .   A
O39         C46 1.304       .   A
O40         C46 1.304       .   A
C41        C199 1.540   1_655   S
C42        C323 1.540       .   S
C43        C383 1.540       .   S
C44        C222 1.540   1_656   S
C45        C406 1.540       .   S
C46        C360 1.540       .   S
Zn47        O51 1.942       .   S
Zn47        O52 1.922       .   S
Zn47        O56 1.922       .   S
Zn47        O63 1.922       .   S
Zn48        O51 1.942       .   S
Zn48        O53 1.922       .   S
Zn48        O55 1.922       .   S
Zn48        O59 1.922       .   S
Zn49        O51 1.942       .   S
Zn49        O54 1.922       .   S
Zn49        O57 1.922       .   S
Zn49        O60 1.922       .   S
Zn50        O51 1.942       .   S
Zn50        O58 1.922       .   S
Zn50        O61 1.922       .   S
Zn50        O62 1.922       .   S
O52         C64 1.304       .   A
O53         C65 1.304       .   A
O54         C66 1.304       .   A
O55         C64 1.304       .   A
O56         C66 1.304       .   A
O57         C65 1.304       .   A
O58         C67 1.304       .   A
O59         C68 1.304       .   A
O60         C67 1.304       .   A
O61         C68 1.304       .   A
O62         C69 1.304       .   A
O63         C69 1.304       .   A
C64        C429 1.540       .   S
C65        C461 1.540       .   S
C66        C291 1.540   1_655   S
C67        C452 1.540       .   S
C68        C314 1.540   1_665   S
C69        C484 1.540       .   S
Zn70        O74 1.942       .   S
Zn70        O75 1.922       .   S
Zn70        O79 1.922       .   S
Zn70        O86 1.922       .   S
Zn71        O74 1.942       .   S
Zn71        O76 1.922       .   S
Zn71        O78 1.922       .   S
Zn71        O82 1.922       .   S
Zn72        O74 1.942       .   S
Zn72        O77 1.922       .   S
Zn72        O80 1.922       .   S
Zn72        O83 1.922       .   S
Zn73        O74 1.942       .   S
Zn73        O81 1.922       .   S
Zn73        O84 1.922       .   S
Zn73        O85 1.922       .   S
O75         C87 1.304       .   A
O76         C88 1.304       .   A
O77         C89 1.304       .   A
O78         C87 1.304       .   A
O79         C89 1.304       .   A
O80         C88 1.304       .   A
O81         C90 1.304       .   A
O82         C91 1.304       .   A
O83         C90 1.304       .   A
O84         C91 1.304       .   A
O85         C92 1.304       .   A
O86         C92 1.304       .   A
C87        C369 1.540       .   S
C88        C415 1.540       .   S
C89        C530 1.540       .   S
C90        C392 1.540   1_565   S
C91        C507 1.540       .   S
C92        C438 1.540   1_556   S
Zn93        O97 1.942       .   S
Zn93        O98 1.922       .   S
Zn93       O102 1.922       .   S
Zn93       O109 1.922       .   S
Zn94        O97 1.942       .   S
Zn94        O99 1.922       .   S
Zn94       O101 1.922       .   S
Zn94       O105 1.922       .   S
Zn95        O97 1.942       .   S
Zn95       O100 1.922       .   S
Zn95       O103 1.922       .   S
Zn95       O106 1.922       .   S
Zn96        O97 1.942       .   S
Zn96       O104 1.922       .   S
Zn96       O107 1.922       .   S
Zn96       O108 1.922       .   S
O98        C110 1.304       .   A
O99        C111 1.304       .   A
O100       C112 1.304       .   A
O101       C110 1.304       .   A
O102       C112 1.304       .   A
O103       C111 1.304       .   A
O104       C113 1.304       .   A
O105       C114 1.304       .   A
O106       C113 1.304       .   A
O107       C114 1.304       .   A
O108       C115 1.304       .   A
O109       C115 1.304       .   A
C110       C599 1.540       .   S
C111       C553 1.540       .   S
C112       C245 1.540   1_565   S
C113       C636 1.540       .   S
C114       C268 1.540   1_665   S
C115       C576 1.540       .   S
Zn116      O120 1.942       .   S
Zn116      O121 1.922       .   S
Zn116      O125 1.922       .   S
Zn116      O132 1.922       .   S
Zn117      O120 1.942       .   S
Zn117      O122 1.922       .   S
Zn117      O124 1.922       .   S
Zn117      O128 1.922       .   S
Zn118      O120 1.942       .   S
Zn118      O123 1.922       .   S
Zn118      O126 1.922       .   S
Zn118      O129 1.922       .   S
Zn119      O120 1.942       .   S
Zn119      O127 1.922       .   S
Zn119      O130 1.922       .   S
Zn119      O131 1.922       .   S
O121       C133 1.304       .   A
O122       C134 1.304       .   A
O123       C135 1.304       .   A
O124       C133 1.304       .   A
O125       C135 1.304       .   A
O126       C134 1.304       .   A
O127       C136 1.304       .   A
O128       C137 1.304       .   A
O129       C136 1.304       .   A
O130       C137 1.304       .   A
O131       C138 1.304       .   A
O132       C138 1.304       .   A
C133       C668 1.540       .   S
C134       C337 1.540   1_465   S
C135       C590 1.540   1_556   S
C136       C645 1.540       .   S
C137       C567 1.540       .   S
C138       C346 1.540   1_565   S
Zn139      O143 1.942       .   S
Zn139      O144 1.922       .   S
Zn139      O148 1.922       .   S
Zn139      O155 1.922       .   S
Zn140      O143 1.942       .   S
Zn140      O145 1.922       .   S
Zn140      O147 1.922       .   S
Zn140      O151 1.922       .   S
Zn141      O143 1.942       .   S
Zn141      O146 1.922       .   S
Zn141      O149 1.922       .   S
Zn141      O152 1.922       .   S
Zn142      O143 1.942       .   S
Zn142      O150 1.922       .   S
Zn142      O153 1.922       .   S
Zn142      O154 1.922       .   S
O144       C156 1.304       .   A
O145       C157 1.304       .   A
O146       C158 1.304       .   A
O147       C156 1.304       .   A
O148       C158 1.304       .   A
O149       C157 1.304       .   A
O150       C159 1.304       .   A
O151       C160 1.304       .   A
O152       C159 1.304       .   A
O153       C160 1.304       .   A
O154       C161 1.304       .   A
O155       C161 1.304       .   A
C156       C475 1.540   1_455   S
C157       C705 1.540       .   S
C158       C613 1.540   1_545   S
C159       C498 1.540       .   S
C160       C622 1.540       .   S
C161       C714 1.540       .   S
Zn162      O166 1.942       .   S
Zn162      O167 1.922       .   S
Zn162      O171 1.922       .   S
Zn162      O178 1.922       .   S
Zn163      O166 1.942       .   S
Zn163      O168 1.922       .   S
Zn163      O170 1.922       .   S
Zn163      O174 1.922       .   S
Zn164      O166 1.942       .   S
Zn164      O169 1.922       .   S
Zn164      O172 1.922       .   S
Zn164      O175 1.922       .   S
Zn165      O166 1.942       .   S
Zn165      O173 1.922       .   S
Zn165      O176 1.922       .   S
Zn165      O177 1.922       .   S
O167       C179 1.304       .   A
O168       C180 1.304       .   A
O169       C181 1.304       .   A
O170       C179 1.304       .   A
O171       C181 1.304       .   A
O172       C180 1.304       .   A
O173       C182 1.304       .   A
O174       C183 1.304       .   A
O175       C182 1.304       .   A
O176       C183 1.304       .   A
O177       C184 1.304       .   A
O178       C184 1.304       .   A
C179       C691 1.540       .   S
C180       C521 1.540   1_455   S
C181       C659 1.540   1_545   S
C182       C728 1.540   1_556   S
C183       C682 1.540       .   S
C184       C544 1.540       .   S
C714       C715 0.029       .   A
C714       C719 0.029       .   A
C715       C716 0.029       .   A
C715       H722 0.023       .   A
C716       C717 0.029       .   A
C716       F721 0.029       .   A
C717       C718 0.029       .   A
C717       N720 0.029       .   A
C718       C719 0.029       .   A
C718       H724 0.023       .   A
C719      Br723 0.040       .   A
N720       N725 0.028       .   A
N725       C726 0.033       .   A
C726       C727 0.034       .   A
C726       N730 0.032       .   A
C726       H736 0.024       .   A
C727       C728 0.034       .   A
C727       H733 0.023       .   A
C727       H735 0.023       .   A
C728       N729 0.032       .   A
C728       H734 0.023       .   A
N729       N730 0.032       .   A
N729       H732 0.022       .   A
N730       H731 0.022       .   A
C691       C692 0.029       .   A
C691       C696 0.029       .   A
C692       C693 0.029       .   A
C692       H699 0.023       .   A
C693       C694 0.029       .   A
C693       F698 0.029       .   A
C694       C695 0.029       .   A
C694       N697 0.029       .   A
C695       C696 0.029       .   A
C695       H701 0.023       .   A
C696      Br700 0.040       .   A
N697       N702 0.028       .   A
N702       C703 0.033       .   A
C703       C704 0.034       .   A
C703       N707 0.032       .   A
C703       H713 0.024       .   A
C704       C705 0.034       .   A
C704       H710 0.023       .   A
C704       H712 0.023       .   A
C705       N706 0.032       .   A
C705       H711 0.023       .   A
N706       N707 0.032       .   A
N706       H709 0.022       .   A
N707       H708 0.022       .   A
C668       C669 0.029       .   A
C668       C673 0.029       .   A
C669       C670 0.029       .   A
C669       H676 0.023       .   A
C670       C671 0.029       .   A
C670       F675 0.029       .   A
C671       C672 0.029       .   A
C671       N674 0.029       .   A
C672       C673 0.029       .   A
C672       H678 0.023       .   A
C673      Br677 0.040       .   A
N674       N679 0.028       .   A
N679       C680 0.033       .   A
C680       C681 0.034       .   A
C680       N684 0.032       .   A
C680       H690 0.024       .   A
C681       C682 0.034       .   A
C681       H687 0.023       .   A
C681       H689 0.023       .   A
C682       N683 0.032       .   A
C682       H688 0.023       .   A
N683       N684 0.032       .   A
N683       H686 0.022       .   A
N684       H685 0.022       .   A
C645       C646 0.029       .   A
C645       C650 0.029       .   A
C646       C647 0.029       .   A
C646       H653 0.023       .   A
C647       C648 0.029       .   A
C647       F652 0.029       .   A
C648       C649 0.029       .   A
C648       N651 0.029       .   A
C649       C650 0.029       .   A
C649       H655 0.023       .   A
C650      Br654 0.040       .   A
N651       N656 0.028       .   A
N656       C657 0.033       .   A
C657       C658 0.034       .   A
C657       N661 0.032       .   A
C657       H667 0.024       .   A
C658       C659 0.034       .   A
C658       H664 0.023       .   A
C658       H666 0.023       .   A
C659       N660 0.032       .   A
C659       H665 0.023       .   A
N660       N661 0.032       .   A
N660       H663 0.022       .   A
N661       H662 0.022       .   A
C622       C623 0.029       .   A
C622       C627 0.029       .   A
C623       C624 0.029       .   A
C623       H630 0.023       .   A
C624       C625 0.029       .   A
C624       F629 0.029       .   A
C625       C626 0.029       .   A
C625       N628 0.029       .   A
C626       C627 0.029       .   A
C626       H632 0.023       .   A
C627      Br631 0.040       .   A
N628       N633 0.028       .   A
N633       C634 0.033       .   A
C634       C635 0.034       .   A
C634       N638 0.032       .   A
C634       H644 0.024       .   A
C635       C636 0.034       .   A
C635       H641 0.023       .   A
C635       H643 0.023       .   A
C636       N637 0.032       .   A
C636       H642 0.023       .   A
N637       N638 0.032       .   A
N637       H640 0.022       .   A
N638       H639 0.022       .   A
C599       C600 0.029       .   A
C599       C604 0.029       .   A
C600       C601 0.029       .   A
C600       H607 0.023       .   A
C601       C602 0.029       .   A
C601       F606 0.029       .   A
C602       C603 0.029       .   A
C602       N605 0.029       .   A
C603       C604 0.029       .   A
C603       H609 0.023       .   A
C604      Br608 0.040       .   A
N605       N610 0.028       .   A
N610       C611 0.033       .   A
C611       C612 0.034       .   A
C611       N615 0.032       .   A
C611       H621 0.024       .   A
C612       C613 0.034       .   A
C612       H618 0.023       .   A
C612       H620 0.023       .   A
C613       N614 0.032       .   A
C613       H619 0.023       .   A
N614       N615 0.032       .   A
N614       H617 0.022       .   A
N615       H616 0.022       .   A
C576       C577 0.029       .   A
C576       C581 0.029       .   A
C577       C578 0.029       .   A
C577       H584 0.023       .   A
C578       C579 0.029       .   A
C578       F583 0.029       .   A
C579       C580 0.029       .   A
C579       N582 0.029       .   A
C580       C581 0.029       .   A
C580       H586 0.023       .   A
C581      Br585 0.040       .   A
N582       N587 0.028       .   A
N587       C588 0.033       .   A
C588       C589 0.034       .   A
C588       N592 0.032       .   A
C588       H598 0.024       .   A
C589       C590 0.034       .   A
C589       H595 0.023       .   A
C589       H597 0.023       .   A
C590       N591 0.032       .   A
C590       H596 0.023       .   A
N591       N592 0.032       .   A
N591       H594 0.022       .   A
N592       H593 0.022       .   A
C553       C554 0.029       .   A
C553       C558 0.029       .   A
C554       C555 0.029       .   A
C554       H561 0.023       .   A
C555       C556 0.029       .   A
C555       F560 0.029       .   A
C556       C557 0.029       .   A
C556       N559 0.029       .   A
C557       C558 0.029       .   A
C557       H563 0.023       .   A
C558      Br562 0.040       .   A
N559       N564 0.028       .   A
N564       C565 0.033       .   A
C565       C566 0.034       .   A
C565       N569 0.032       .   A
C565       H575 0.024       .   A
C566       C567 0.034       .   A
C566       H572 0.023       .   A
C566       H574 0.023       .   A
C567       N568 0.032       .   A
C567       H573 0.023       .   A
N568       N569 0.032       .   A
N568       H571 0.022       .   A
N569       H570 0.022       .   A
C530       C531 0.029       .   A
C530       C535 0.029       .   A
C531       C532 0.029       .   A
C531       H538 0.023       .   A
C532       C533 0.029       .   A
C532       F537 0.029       .   A
C533       C534 0.029       .   A
C533       N536 0.029       .   A
C534       C535 0.029       .   A
C534       H540 0.023       .   A
C535      Br539 0.040       .   A
N536       N541 0.028       .   A
N541       C542 0.033       .   A
C542       C543 0.034       .   A
C542       N546 0.032       .   A
C542       H552 0.024       .   A
C543       C544 0.034       .   A
C543       H549 0.023       .   A
C543       H551 0.023       .   A
C544       N545 0.032       .   A
C544       H550 0.023       .   A
N545       N546 0.032       .   A
N545       H548 0.022       .   A
N546       H547 0.022       .   A
C507       C508 0.029       .   A
C507       C512 0.029       .   A
C508       C509 0.029       .   A
C508       H515 0.023       .   A
C509       C510 0.029       .   A
C509       F514 0.029       .   A
C510       C511 0.029       .   A
C510       N513 0.029       .   A
C511       C512 0.029       .   A
C511       H517 0.023       .   A
C512      Br516 0.040       .   A
N513       N518 0.028       .   A
N518       C519 0.033       .   A
C519       C520 0.034       .   A
C519       N523 0.032       .   A
C519       H529 0.024       .   A
C520       C521 0.034       .   A
C520       H526 0.023       .   A
C520       H528 0.023       .   A
C521       N522 0.032       .   A
C521       H527 0.023       .   A
N522       N523 0.032       .   A
N522       H525 0.022       .   A
N523       H524 0.022       .   A
C484       C485 0.029       .   A
C484       C489 0.029       .   A
C485       C486 0.029       .   A
C485       H492 0.023       .   A
C486       C487 0.029       .   A
C486       F491 0.029       .   A
C487       C488 0.029       .   A
C487       N490 0.029       .   A
C488       C489 0.029       .   A
C488       H494 0.023       .   A
C489      Br493 0.040       .   A
N490       N495 0.028       .   A
N495       C496 0.033       .   A
C496       C497 0.034       .   A
C496       N500 0.032       .   A
C496       H506 0.024       .   A
C497       C498 0.034       .   A
C497       H503 0.023       .   A
C497       H505 0.023       .   A
C498       N499 0.032       .   A
C498       H504 0.023       .   A
N499       N500 0.032       .   A
N499       H502 0.022       .   A
N500       H501 0.022       .   A
C461       C462 0.029       .   A
C461       C466 0.029       .   A
C462       C463 0.029       .   A
C462       H469 0.023       .   A
C463       C464 0.029       .   A
C463       F468 0.029       .   A
C464       C465 0.029       .   A
C464       N467 0.029       .   A
C465       C466 0.029       .   A
C465       H471 0.023       .   A
C466      Br470 0.040       .   A
N467       N472 0.028       .   A
N472       C473 0.033       .   A
C473       C474 0.034       .   A
C473       N477 0.032       .   A
C473       H483 0.024       .   A
C474       C475 0.034       .   A
C474       H480 0.023       .   A
C474       H482 0.023       .   A
C475       N476 0.032       .   A
C475       H481 0.023       .   A
N476       N477 0.032       .   A
N476       H479 0.022       .   A
N477       H478 0.022       .   A
C438       C439 0.029       .   A
C438       C443 0.029       .   A
C439       C440 0.029       .   A
C439       H446 0.023       .   A
C440       C441 0.029       .   A
C440       F445 0.029       .   A
C441       C442 0.029       .   A
C441       N444 0.029       .   A
C442       C443 0.029       .   A
C442       H448 0.023       .   A
C443      Br447 0.040       .   A
N444       N449 0.028       .   A
N449       C450 0.033       .   A
C450       C451 0.034       .   A
C450       N454 0.032       .   A
C450       H460 0.024       .   A
C451       C452 0.034       .   A
C451       H457 0.023       .   A
C451       H459 0.023       .   A
C452       N453 0.032       .   A
C452       H458 0.023       .   A
N453       N454 0.032       .   A
N453       H456 0.022       .   A
N454       H455 0.022       .   A
C415       C416 0.029       .   A
C415       C420 0.029       .   A
C416       C417 0.029       .   A
C416       H423 0.023       .   A
C417       C418 0.029       .   A
C417       F422 0.029       .   A
C418       C419 0.029       .   A
C418       N421 0.029       .   A
C419       C420 0.029       .   A
C419       H425 0.023       .   A
C420      Br424 0.040       .   A
N421       N426 0.028       .   A
N426       C427 0.033       .   A
C427       C428 0.034       .   A
C427       N431 0.032       .   A
C427       H437 0.024       .   A
C428       C429 0.034       .   A
C428       H434 0.023       .   A
C428       H436 0.023       .   A
C429       N430 0.032       .   A
C429       H435 0.023       .   A
N430       N431 0.032       .   A
N430       H433 0.022       .   A
N431       H432 0.022       .   A
C392       C393 0.029       .   A
C392       C397 0.029       .   A
C393       C394 0.029       .   A
C393       H400 0.023       .   A
C394       C395 0.029       .   A
C394       F399 0.029       .   A
C395       C396 0.029       .   A
C395       N398 0.029       .   A
C396       C397 0.029       .   A
C396       H402 0.023       .   A
C397      Br401 0.040       .   A
N398       N403 0.028       .   A
N403       C404 0.033       .   A
C404       C405 0.034       .   A
C404       N408 0.032       .   A
C404       H414 0.024       .   A
C405       C406 0.034       .   A
C405       H411 0.023       .   A
C405       H413 0.023       .   A
C406       N407 0.032       .   A
C406       H412 0.023       .   A
N407       N408 0.032       .   A
N407       H410 0.022       .   A
N408       H409 0.022       .   A
C369       C370 0.029       .   A
C369       C374 0.029       .   A
C370       C371 0.029       .   A
C370       H377 0.023       .   A
C371       C372 0.029       .   A
C371       F376 0.029       .   A
C372       C373 0.029       .   A
C372       N375 0.029       .   A
C373       C374 0.029       .   A
C373       H379 0.023       .   A
C374      Br378 0.040       .   A
N375       N380 0.028       .   A
N380       C381 0.033       .   A
C381       C382 0.034       .   A
C381       N385 0.032       .   A
C381       H391 0.024       .   A
C382       C383 0.034       .   A
C382       H388 0.023       .   A
C382       H390 0.023       .   A
C383       N384 0.032       .   A
C383       H389 0.023       .   A
N384       N385 0.032       .   A
N384       H387 0.022       .   A
N385       H386 0.022       .   A
C346       C347 0.029       .   A
C346       C351 0.029       .   A
C347       C348 0.029       .   A
C347       H354 0.023       .   A
C348       C349 0.029       .   A
C348       F353 0.029       .   A
C349       C350 0.029       .   A
C349       N352 0.029       .   A
C350       C351 0.029       .   A
C350       H356 0.023       .   A
C351      Br355 0.040       .   A
N352       N357 0.028       .   A
N357       C358 0.033       .   A
C358       C359 0.034       .   A
C358       N362 0.032       .   A
C358       H368 0.024       .   A
C359       C360 0.034       .   A
C359       H365 0.023       .   A
C359       H367 0.023       .   A
C360       N361 0.032       .   A
C360       H366 0.023       .   A
N361       N362 0.032       .   A
N361       H364 0.022       .   A
N362       H363 0.022       .   A
C323       C324 0.029       .   A
C323       C328 0.029       .   A
C324       C325 0.029       .   A
C324       H331 0.023       .   A
C325       C326 0.029       .   A
C325       F330 0.029       .   A
C326       C327 0.029       .   A
C326       N329 0.029       .   A
C327       C328 0.029       .   A
C327       H333 0.023       .   A
C328      Br332 0.040       .   A
N329       N334 0.028       .   A
N334       C335 0.033       .   A
C335       C336 0.034       .   A
C335       N339 0.032       .   A
C335       H345 0.024       .   A
C336       C337 0.034       .   A
C336       H342 0.023       .   A
C336       H344 0.023       .   A
C337       N338 0.032       .   A
C337       H343 0.023       .   A
N338       N339 0.032       .   A
N338       H341 0.022       .   A
N339       H340 0.022       .   A
C300       C301 0.029       .   A
C300       C305 0.029       .   A
C301       C302 0.029       .   A
C301       H308 0.023       .   A
C302       C303 0.029       .   A
C302       F307 0.029       .   A
C303       C304 0.029       .   A
C303       N306 0.029       .   A
C304       C305 0.029       .   A
C304       H310 0.023       .   A
C305      Br309 0.040       .   A
N306       N311 0.028       .   A
N311       C312 0.033       .   A
C312       C313 0.034       .   A
C312       N316 0.032       .   A
C312       H322 0.024       .   A
C313       C314 0.034       .   A
C313       H319 0.023       .   A
C313       H321 0.023       .   A
C314       N315 0.032       .   A
C314       H320 0.023       .   A
N315       N316 0.032       .   A
N315       H318 0.022       .   A
N316       H317 0.022       .   A
C277       C278 0.029       .   A
C277       C282 0.029       .   A
C278       C279 0.029       .   A
C278       H285 0.023       .   A
C279       C280 0.029       .   A
C279       F284 0.029       .   A
C280       C281 0.029       .   A
C280       N283 0.029       .   A
C281       C282 0.029       .   A
C281       H287 0.023       .   A
C282      Br286 0.040       .   A
N283       N288 0.028       .   A
N288       C289 0.033       .   A
C289       C290 0.034       .   A
C289       N293 0.032       .   A
C289       H299 0.024       .   A
C290       C291 0.034       .   A
C290       H296 0.023       .   A
C290       H298 0.023       .   A
C291       N292 0.032       .   A
C291       H297 0.023       .   A
N292       N293 0.032       .   A
N292       H295 0.022       .   A
N293       H294 0.022       .   A
C254       C255 0.029       .   A
C254       C259 0.029       .   A
C255       C256 0.029       .   A
C255       H262 0.023       .   A
C256       C257 0.029       .   A
C256       F261 0.029       .   A
C257       C258 0.029       .   A
C257       N260 0.029       .   A
C258       C259 0.029       .   A
C258       H264 0.023       .   A
C259      Br263 0.040       .   A
N260       N265 0.028       .   A
N265       C266 0.033       .   A
C266       C267 0.034       .   A
C266       N270 0.032       .   A
C266       H276 0.024       .   A
C267       C268 0.034       .   A
C267       H273 0.023       .   A
C267       H275 0.023       .   A
C268       N269 0.032       .   A
C268       H274 0.023       .   A
N269       N270 0.032       .   A
N269       H272 0.022       .   A
N270       H271 0.022       .   A
C231       C232 0.029       .   A
C231       C236 0.029       .   A
C232       C233 0.029       .   A
C232       H239 0.023       .   A
C233       C234 0.029       .   A
C233       F238 0.029       .   A
C234       C235 0.029       .   A
C234       N237 0.029       .   A
C235       C236 0.029       .   A
C235       H241 0.023       .   A
C236      Br240 0.040       .   A
N237       N242 0.028       .   A
N242       C243 0.033       .   A
C243       C244 0.034       .   A
C243       N247 0.032       .   A
C243       H253 0.024       .   A
C244       C245 0.034       .   A
C244       H250 0.023       .   A
C244       H252 0.023       .   A
C245       N246 0.032       .   A
C245       H251 0.023       .   A
N246       N247 0.032       .   A
N246       H249 0.022       .   A
N247       H248 0.022       .   A
C208       C209 0.029       .   A
C208       C213 0.029       .   A
C209       C210 0.029       .   A
C209       H216 0.023       .   A
C210       C211 0.029       .   A
C210       F215 0.029       .   A
C211       C212 0.029       .   A
C211       N214 0.029       .   A
C212       C213 0.029       .   A
C212       H218 0.023       .   A
C213      Br217 0.040       .   A
N214       N219 0.028       .   A
N219       C220 0.033       .   A
C220       C221 0.034       .   A
C220       N224 0.032       .   A
C220       H230 0.024       .   A
C221       C222 0.034       .   A
C221       H227 0.023       .   A
C221       H229 0.023       .   A
C222       N223 0.032       .   A
C222       H228 0.023       .   A
N223       N224 0.032       .   A
N223       H226 0.022       .   A
N224       H225 0.022       .   A
C185       C186 0.029       .   A
C185       C190 0.029       .   A
C186       C187 0.029       .   A
C186       H193 0.023       .   A
C187       C188 0.029       .   A
C187       F192 0.029       .   A
C188       C189 0.029       .   A
C188       N191 0.029       .   A
C189       C190 0.029       .   A
C189       H195 0.023       .   A
C190      Br194 0.040       .   A
N191       N196 0.028       .   A
N196       C197 0.033       .   A
C197       C198 0.034       .   A
C197       N201 0.032       .   A
C197       H207 0.024       .   A
C198       C199 0.034       .   A
C198       H204 0.023       .   A
C198       H206 0.023       .   A
C199       N200 0.032       .   A
C199       H205 0.023       .   A
N200       N201 0.032       .   A
N200       H203 0.022       .   A
N201       H202 0.022       .   A
