data_pcu_v1-6c_Zn_1_Ch_1-35_fer_tobacco
_audit_creation_date              2021-02-03
_audit_creation_method            'tobacco_3.0'
_symmetry_space_group_name_H-M    'P1'
_symmetry_Int_Tables_number       1
_symmetry_cell_setting            triclinic
loop_
_symmetry_equiv_pos_as_xyz
  x,y,z
_cell_length_a                    26.060280136972192
_cell_length_b                    26.060280136972192
_cell_length_c                    26.060280136972192
_cell_angle_alpha                 90.0
_cell_angle_beta                  90.0
_cell_angle_gamma                 90.0
loop_
_atom_site_label
_atom_site_type_symbol
_atom_site_fract_x
_atom_site_fract_y
_atom_site_fract_z
_atom_site_charge
Zn1       Zn   -0.0430233288   -0.0430233288    0.0430233288          1.4972
Zn2       Zn    0.0430233288    0.0430233288    0.0430233288          1.4936
Zn3       Zn    0.0430233288   -0.0430233288   -0.0430233288          1.4911
Zn4       Zn   -0.0430233288    0.0430233288   -0.0430233288          1.4948
O5         O    0.0000000000    0.0000000000    0.0000000000         -2.2324
O6         O   -0.0316190001   -0.0316190001    0.1149872520         -1.1387
O7         O    0.1149872520    0.0316190001    0.0316190001         -1.1369
O8         O    0.0316190001   -0.1149872520   -0.0316190001         -1.1321
O9         O    0.0316190001    0.0316190001    0.1149872520         -1.1389
O10        O   -0.0316190001   -0.1149872520    0.0316190001         -1.1349
O11        O    0.1149872520   -0.0316190001   -0.0316190001         -1.1407
O12        O   -0.0316190001    0.0316190001   -0.1149872520         -1.1346
O13        O    0.0316190001    0.1149872520    0.0316190001         -1.1422
O14        O    0.0316190001   -0.0316190001   -0.1149872520         -1.1361
O15        O   -0.0316190001    0.1149872520   -0.0316190001         -1.1408
O16        O   -0.1149872520    0.0316190001   -0.0316190001         -1.1399
O17        O   -0.1149872520   -0.0316190001    0.0316190001         -1.1377
C18        C   -0.0000000000   -0.0000000000    0.1374812543          0.3801
C19        C    0.1374812543   -0.0000000000   -0.0000000000           0.385
C20        C   -0.0000000000   -0.1374812543    0.0000000000          0.3746
C21        C    0.0000000000    0.0000000000   -0.1374812543          0.3784
C22        C    0.0000000000    0.1374812543   -0.0000000000          0.3898
C23        C   -0.1374812543    0.0000000000    0.0000000000          0.3803
Zn24      Zn    0.9569766712    0.0430233288    0.4569766712          1.4972
Zn25      Zn    1.0430233288   -0.0430233288    0.4569766712          1.4936
Zn26      Zn    1.0430233288    0.0430233288    0.5430233288          1.4911
Zn27      Zn    0.9569766712   -0.0430233288    0.5430233288          1.4948
O28        O    1.0000000000    0.0000000000    0.5000000000         -2.2324
O29        O    0.9683809999    0.0316190001    0.3850127480         -1.1387
O30        O    1.1149872520   -0.0316190001    0.4683809999         -1.1369
O31        O    1.0316190001    0.1149872520    0.5316190001         -1.1321
O32        O    1.0316190001   -0.0316190001    0.3850127480         -1.1389
O33        O    0.9683809999    0.1149872520    0.4683809999         -1.1349
O34        O    1.1149872520    0.0316190001    0.5316190001         -1.1407
O35        O    0.9683809999   -0.0316190001    0.6149872520         -1.1346
O36        O    1.0316190001   -0.1149872520    0.4683809999         -1.1422
O37        O    1.0316190001    0.0316190001    0.6149872520         -1.1361
O38        O    0.9683809999   -0.1149872520    0.5316190001         -1.1408
O39        O    0.8850127480   -0.0316190001    0.5316190001         -1.1399
O40        O    0.8850127480    0.0316190001    0.4683809999         -1.1377
C41        C    1.0000000000    0.0000000000    0.3625187457          0.3801
C42        C    1.1374812543    0.0000000000    0.5000000000           0.385
C43        C    1.0000000000    0.1374812543    0.5000000000          0.3746
C44        C    1.0000000000    0.0000000000    0.6374812543          0.3784
C45        C    1.0000000000   -0.1374812543    0.5000000000          0.3898
C46        C    0.8625187457    0.0000000000    0.5000000000          0.3803
Zn47      Zn    1.0430233288    0.4569766712   -0.0430233288          1.4972
Zn48      Zn    0.9569766712    0.4569766712    0.0430233288          1.4936
Zn49      Zn    1.0430233288    0.5430233288    0.0430233288          1.4911
Zn50      Zn    0.9569766712    0.5430233288   -0.0430233288          1.4948
O51        O    1.0000000000    0.5000000000    0.0000000000         -2.2324
O52        O    1.0316190001    0.3850127480   -0.0316190001         -1.1387
O53        O    0.9683809999    0.4683809999    0.1149872520         -1.1369
O54        O    1.1149872520    0.5316190001    0.0316190001         -1.1321
O55        O    0.9683809999    0.3850127480    0.0316190001         -1.1389
O56        O    1.1149872520    0.4683809999   -0.0316190001         -1.1349
O57        O    1.0316190001    0.5316190001    0.1149872520         -1.1407
O58        O    0.9683809999    0.6149872520   -0.0316190001         -1.1346
O59        O    0.8850127480    0.4683809999    0.0316190001         -1.1422
O60        O    1.0316190001    0.6149872520    0.0316190001         -1.1361
O61        O    0.8850127480    0.5316190001   -0.0316190001         -1.1408
O62        O    0.9683809999    0.5316190001   -0.1149872520         -1.1399
O63        O    1.0316190001    0.4683809999   -0.1149872520         -1.1377
C64        C    1.0000000000    0.3625187457    0.0000000000          0.3801
C65        C    1.0000000000    0.5000000000    0.1374812543           0.385
C66        C    1.1374812543    0.5000000000    0.0000000000          0.3746
C67        C    1.0000000000    0.6374812543    0.0000000000          0.3784
C68        C    0.8625187457    0.5000000000    0.0000000000          0.3898
C69        C    1.0000000000    0.5000000000   -0.1374812543          0.3803
Zn70      Zn    1.0430233288    0.5430233288    0.4569766712          1.4972
Zn71      Zn    0.9569766712    0.4569766712    0.4569766712          1.4936
Zn72      Zn    1.0430233288    0.4569766712    0.5430233288          1.4911
Zn73      Zn    0.9569766712    0.5430233288    0.5430233288          1.4948
O74        O    1.0000000000    0.5000000000    0.5000000000         -2.2324
O75        O    1.0316190001    0.5316190001    0.3850127480         -1.1387
O76        O    0.9683809999    0.3850127480    0.4683809999         -1.1369
O77        O    1.1149872520    0.4683809999    0.5316190001         -1.1321
O78        O    0.9683809999    0.4683809999    0.3850127480         -1.1389
O79        O    1.1149872520    0.5316190001    0.4683809999         -1.1349
O80        O    1.0316190001    0.3850127480    0.5316190001         -1.1407
O81        O    0.9683809999    0.5316190001    0.6149872520         -1.1346
O82        O    0.8850127480    0.4683809999    0.4683809999         -1.1422
O83        O    1.0316190001    0.4683809999    0.6149872520         -1.1361
O84        O    0.8850127480    0.5316190001    0.5316190001         -1.1408
O85        O    0.9683809999    0.6149872520    0.5316190001         -1.1399
O86        O    1.0316190001    0.6149872520    0.4683809999         -1.1377
C87        C    1.0000000000    0.5000000000    0.3625187457          0.3801
C88        C    1.0000000000    0.3625187457    0.5000000000           0.385
C89        C    1.1374812543    0.5000000000    0.5000000000          0.3746
C90        C    1.0000000000    0.5000000000    0.6374812543          0.3784
C91        C    0.8625187457    0.5000000000    0.5000000000          0.3898
C92        C    1.0000000000    0.6374812543    0.5000000000          0.3803
Zn93      Zn    0.5430233288    1.0430233288    0.0430233288          1.4972
Zn94      Zn    0.4569766712    0.9569766712    0.0430233288          1.4936
Zn95      Zn    0.4569766712    1.0430233288   -0.0430233288          1.4911
Zn96      Zn    0.5430233288    0.9569766712   -0.0430233288          1.4948
O97        O    0.5000000000    1.0000000000    0.0000000000         -2.2324
O98        O    0.5316190001    1.0316190001    0.1149872520         -1.1387
O99        O    0.3850127480    0.9683809999    0.0316190001         -1.1369
O100       O    0.4683809999    1.1149872520   -0.0316190001         -1.1321
O101       O    0.4683809999    0.9683809999    0.1149872520         -1.1389
O102       O    0.5316190001    1.1149872520    0.0316190001         -1.1349
O103       O    0.3850127480    1.0316190001   -0.0316190001         -1.1407
O104       O    0.5316190001    0.9683809999   -0.1149872520         -1.1346
O105       O    0.4683809999    0.8850127480    0.0316190001         -1.1422
O106       O    0.4683809999    1.0316190001   -0.1149872520         -1.1361
O107       O    0.5316190001    0.8850127480   -0.0316190001         -1.1408
O108       O    0.6149872520    0.9683809999   -0.0316190001         -1.1399
O109       O    0.6149872520    1.0316190001    0.0316190001         -1.1377
C110       C    0.5000000000    1.0000000000    0.1374812543          0.3801
C111       C    0.3625187457    1.0000000000    0.0000000000           0.385
C112       C    0.5000000000    1.1374812543    0.0000000000          0.3746
C113       C    0.5000000000    1.0000000000   -0.1374812543          0.3784
C114       C    0.5000000000    0.8625187457    0.0000000000          0.3898
C115       C    0.6374812543    1.0000000000    0.0000000000          0.3803
Zn116     Zn    0.5430233288    0.9569766712    0.4569766712          1.4972
Zn117     Zn    0.4569766712    1.0430233288    0.4569766712          1.4936
Zn118     Zn    0.4569766712    0.9569766712    0.5430233288          1.4911
Zn119     Zn    0.5430233288    1.0430233288    0.5430233288          1.4948
O120       O    0.5000000000    1.0000000000    0.5000000000         -2.2324
O121       O    0.5316190001    0.9683809999    0.3850127480         -1.1387
O122       O    0.3850127480    1.0316190001    0.4683809999         -1.1369
O123       O    0.4683809999    0.8850127480    0.5316190001         -1.1321
O124       O    0.4683809999    1.0316190001    0.3850127480         -1.1389
O125       O    0.5316190001    0.8850127480    0.4683809999         -1.1349
O126       O    0.3850127480    0.9683809999    0.5316190001         -1.1407
O127       O    0.5316190001    1.0316190001    0.6149872520         -1.1346
O128       O    0.4683809999    1.1149872520    0.4683809999         -1.1422
O129       O    0.4683809999    0.9683809999    0.6149872520         -1.1361
O130       O    0.5316190001    1.1149872520    0.5316190001         -1.1408
O131       O    0.6149872520    1.0316190001    0.5316190001         -1.1399
O132       O    0.6149872520    0.9683809999    0.4683809999         -1.1377
C133       C    0.5000000000    1.0000000000    0.3625187457          0.3801
C134       C    0.3625187457    1.0000000000    0.5000000000           0.385
C135       C    0.5000000000    0.8625187457    0.5000000000          0.3746
C136       C    0.5000000000    1.0000000000    0.6374812543          0.3784
C137       C    0.5000000000    1.1374812543    0.5000000000          0.3898
C138       C    0.6374812543    1.0000000000    0.5000000000          0.3803
Zn139     Zn    0.5430233288    0.5430233288    0.0430233288          1.4972
Zn140     Zn    0.4569766712    0.4569766712    0.0430233288          1.4936
Zn141     Zn    0.4569766712    0.5430233288   -0.0430233288          1.4911
Zn142     Zn    0.5430233288    0.4569766712   -0.0430233288          1.4948
O143       O    0.5000000000    0.5000000000    0.0000000000         -2.2324
O144       O    0.5316190001    0.5316190001    0.1149872520         -1.1387
O145       O    0.3850127480    0.4683809999    0.0316190001         -1.1369
O146       O    0.4683809999    0.6149872520   -0.0316190001         -1.1321
O147       O    0.4683809999    0.4683809999    0.1149872520         -1.1389
O148       O    0.5316190001    0.6149872520    0.0316190001         -1.1349
O149       O    0.3850127480    0.5316190001   -0.0316190001         -1.1407
O150       O    0.5316190001    0.4683809999   -0.1149872520         -1.1346
O151       O    0.4683809999    0.3850127480    0.0316190001         -1.1422
O152       O    0.4683809999    0.5316190001   -0.1149872520         -1.1361
O153       O    0.5316190001    0.3850127480   -0.0316190001         -1.1408
O154       O    0.6149872520    0.4683809999   -0.0316190001         -1.1399
O155       O    0.6149872520    0.5316190001    0.0316190001         -1.1377
C156       C    0.5000000000    0.5000000000    0.1374812543          0.3801
C157       C    0.3625187457    0.5000000000    0.0000000000           0.385
C158       C    0.5000000000    0.6374812543    0.0000000000          0.3746
C159       C    0.5000000000    0.5000000000   -0.1374812543          0.3784
C160       C    0.5000000000    0.3625187457    0.0000000000          0.3898
C161       C    0.6374812543    0.5000000000    0.0000000000          0.3803
Zn162     Zn    0.4569766712    0.5430233288    0.4569766712          1.4972
Zn163     Zn    0.4569766712    0.4569766712    0.5430233288          1.4936
Zn164     Zn    0.5430233288    0.4569766712    0.4569766712          1.4911
Zn165     Zn    0.5430233288    0.5430233288    0.5430233288          1.4948
O166       O    0.5000000000    0.5000000000    0.5000000000         -2.2324
O167       O    0.3850127480    0.5316190001    0.4683809999         -1.1387
O168       O    0.4683809999    0.3850127480    0.5316190001         -1.1369
O169       O    0.5316190001    0.4683809999    0.3850127480         -1.1321
O170       O    0.3850127480    0.4683809999    0.5316190001         -1.1389
O171       O    0.4683809999    0.5316190001    0.3850127480         -1.1349
O172       O    0.5316190001    0.3850127480    0.4683809999         -1.1407
O173       O    0.6149872520    0.5316190001    0.5316190001         -1.1346
O174       O    0.4683809999    0.4683809999    0.6149872520         -1.1422
O175       O    0.6149872520    0.4683809999    0.4683809999         -1.1361
O176       O    0.5316190001    0.5316190001    0.6149872520         -1.1408
O177       O    0.5316190001    0.6149872520    0.5316190001         -1.1399
O178       O    0.4683809999    0.6149872520    0.4683809999         -1.1377
C179       C    0.3625187457    0.5000000000    0.5000000000          0.3801
C180       C    0.5000000000    0.3625187457    0.5000000000           0.385
C181       C    0.5000000000    0.5000000000    0.3625187457          0.3746
C182       C    0.6374812543    0.5000000000    0.5000000000          0.3784
C183       C    0.5000000000    0.5000000000    0.6374812543          0.3898
C184       C    0.5000000000    0.6374812543    0.5000000000          0.3803
C737       C    0.5000000000    0.5000000000   -0.1965750166           0.596
C738       C    0.4917139539    0.5435669814   -0.2244168537          0.5886
C739       C    0.4914221538    0.5436589636   -0.2768262699          0.5899
C740       C    0.5000000000    0.5000000000   -0.3034249834          0.5992
C741       C    0.5102099960    0.4568359693   -0.2756737629         -0.3917
C742       C    0.5094227603    0.4560973160   -0.2230392837         -0.3939
C743       C    0.5200804061    0.6233039343   -0.3153825511         -0.3841
C744       C    0.4849437570    0.5817417809   -0.2055698325          0.5813
C745       C    0.5174705169    0.4028810077   -0.1962899266         -0.3865
C746       C    0.5268799566    0.4080896451   -0.3047067829         -0.3749
H747       H    0.4939783000    0.3829386636   -0.3115085604          0.5957
H748       H    0.5563072987    0.3864435170   -0.2842678622         -0.3483
H749       H    0.5449299283    0.4164954066   -0.3415185014         -0.3575
C750       C    0.4903700916    0.3871847244   -0.1456051094          0.5875
H751       H    0.5166483913    0.3901043984   -0.1130904803         -0.3895
H752       H    0.4795770081    0.3467207711   -0.1468796235          0.5784
H753       H    0.4555847921    0.4092475072   -0.1380843455          0.5553
H754       H    0.5585590399    0.3954725430   -0.1922505783         -0.3531
H755       H    0.5026374496    0.3729816395   -0.2214795659          0.6012
H756       H    0.5572743720    0.6039616958   -0.3150781351         -0.3499
H757       H    0.5193365474    0.6536745472   -0.2864311087         -0.3861
H758       H    0.5135536342    0.6402344031   -0.3532233902         -0.3892
O759       O    0.4791236307    0.5869352235   -0.3051057394          0.5788
N760       N    0.4949672230    0.6189042163   -0.1845670134          0.5893
C713       C    0.5000000000    0.5000000000    0.1965750166           0.596
C714       C    0.4564828018    0.5085436462    0.2244168537          0.5886
C715       C    0.4563925476    0.5088359854    0.2768262699          0.5899
C716       C    0.5000000000    0.5000000000    0.3034249834          0.5992
C717       C    0.5431028723    0.4895348214    0.2756737629         -0.3917
C718       C    0.5438461700    0.4903176734    0.2230392837         -0.3939
C719       C    0.3765794265    0.4806494196    0.3153825511         -0.3841
C720       C    0.4183487233    0.5155395693    0.2055698325          0.5813
C721       C    0.5970139359    0.4819552265    0.1962899266         -0.3865
C722       C    0.5917497229    0.4725767661    0.3047067829         -0.3749
H723       H    0.6170949126    0.5053290520    0.3115085604          0.5957
H724       H    0.6132213780    0.4430218790    0.2842678622         -0.3483
H725       H    0.5832373237    0.4545768393    0.3415185014         -0.3575
C726       C    0.6128702725    0.5089623172    0.1456051094          0.5875
H727       H    0.6097951855    0.4827017504    0.1130904803         -0.3895
H728       H    0.6533973703    0.5195158244    0.1468796235          0.5784
H729       H    0.5910136679    0.5438775329    0.1380843455          0.5553
H730       H    0.6041791886    0.4408235935    0.1922505783         -0.3491
H731       H    0.6270005344    0.4966111475    0.2214795659          0.6012
H732       H    0.3957012846    0.4433416746    0.3150781351         -0.3499
H733       H    0.3462137459    0.4815729398    0.2864311087         -0.3861
H734       H    0.3596878668    0.4872762391    0.3532233902         -0.3892
O735       O    0.4131898038    0.5213903185    0.3051057394          0.5788
N736       N    0.3811276388    0.5057361342    0.1845670134          0.5893
C689       C    0.5000000000    0.8034249834    0.5000000000           0.596
C690       C    0.5137088361    0.7755831463    0.5421759202          0.5886
C691       C    0.5140098996    0.7231737301    0.5422304068          0.5899
C692       C    0.5000000000    0.6965750166    0.5000000000          0.5992
C693       C    0.4844333098    0.7243262371    0.4584662099         -0.3917
C694       C    0.4851212132    0.7769607163    0.4576342617         -0.3939
C695       C    0.4956141145    0.6846174489    0.6248512993         -0.3841
C696       C    0.5252345640    0.7944301675    0.5791935981          0.5813
C697       C    0.4704330916    0.8037100734    0.4058558789         -0.3865
C698       C    0.4617548390    0.6952932171    0.4122084682         -0.3749
H699       H    0.4912256758    0.6884914396    0.3831127526          0.5957
H700       H    0.4298348712    0.7157321378    0.3944422365         -0.3483
H701       H    0.4449076932    0.6584814986    0.4228212898         -0.3575
C702       C    0.4953400767    0.8543948906    0.3868703988          0.5875
H703       H    0.4696389976    0.8869095197    0.3930774966         -0.3895
H704       H    0.5009492859    0.8531203765    0.3453690863          0.5784
H705       H    0.5326278025    0.8619156545    0.4043749398          0.5553
H706       H    0.4287385991    0.8077494217    0.4036830069         -0.3491
H707       H    0.4813810799    0.7785204341    0.3743259937          0.6012
H708       H    0.4562796638    0.6849218649    0.6103490828         -0.3499
H709       H    0.5001783063    0.7135688913    0.6548862057         -0.3861
H710       H    0.5042218770    0.6467766098    0.6408245879         -0.3892
O711       O    0.5316626150    0.6948942606    0.5836124076          0.5788
N712       N    0.5199728963    0.8154329866    0.6173227382          0.5893
C665       C    0.5000000000    1.1965750166    0.5000000000           0.596
C666       C    0.4577631057    1.2244168537    0.4864801927          0.5886
C667       C    0.4577072713    1.2768262699    0.4861793762          0.5899
C668       C    0.5000000000    1.3034249834    0.5000000000          0.5992
C669       C    0.5416030914    1.2756737629    0.5153805186         -0.3917
C670       C    0.5424319503    1.2230392837    0.5146888962         -0.3939
C671       C    0.3751695958    1.3153825511    0.5049450072         -0.3841
C672       C    0.4206941793    1.2055698325    0.4751203698          0.5813
C673       C    0.5942755969    1.1962899266    0.5291449730         -0.3865
C674       C    0.5879619382    1.3047067829    0.5378515896         -0.3749
H675       H    0.6169253722    1.3115085604    0.5082507388          0.5957
H676       H    0.6058709501    1.2842678622    0.5696916684         -0.3483
H677       H    0.5774246755    1.3415185014    0.5547460976         -0.3575
C678       C    0.6131493368    1.1456051094    0.5041532083          0.5875
H679       H    0.6070574074    1.1130904803    0.5298818290         -0.3895
H680       H    0.6546251113    1.1468796235    0.4983581854          0.5784
H681       H    0.5954779726    1.1380843455    0.4669442532          0.5553
H682       H    0.5966351822    1.1922505783    0.5708293158         -0.3491
H683       H    0.6257561336    1.2214795659    0.5180558831          0.6012
H684       H    0.3898478321    1.3150781351    0.5442141130         -0.3499
H685       H    0.3451145491    1.2864311087    0.5005153771         -0.3861
H686       H    0.3591579161    1.3532233902    0.4964088699         -0.3892
O687       O    0.4162466251    1.3051057394    0.4687121736          0.5788
N688       N    0.3825889867    1.1845670134    0.4805527519          0.5893
C641       C    0.5000000000    0.8034249834    0.0000000000           0.596
C642       C    0.5315412542    0.7755831463   -0.0311751458          0.5886
C643       C    0.5314548657    0.7231737301   -0.0314686506          0.5899
C644       C    0.5000000000    0.6965750166    0.0000000000          0.5992
C645       C    0.4698662020    0.7243262371    0.0325473776         -0.3917
C646       C    0.4688140464    0.7769607163    0.0323058876         -0.3939
C647       C    0.6135462460    0.6846174489   -0.0520992605         -0.3841
C648       C    0.5594521660    0.7944301675   -0.0580848445          0.5813
C649       C    0.4291305573    0.8037100734    0.0686646904         -0.3865
C650       C    0.4387016034    0.6952932171    0.0735700481         -0.3749
H651       H    0.3994759344    0.6884914396    0.0602870600          0.5957
H652       H    0.4371461037    0.7157321378    0.1100680446         -0.3483
H653       H    0.4557452353    0.6584814986    0.0838643630         -0.3575
C654       C    0.4009880362    0.8543948906    0.0549240619          0.5875
H655       H    0.4180669419    0.8869095197    0.0751078304         -0.3895
H656       H    0.3613819586    0.8531203765    0.0685321764          0.5784
H657       H    0.3999012340    0.8619156545    0.0137463701          0.5553
H658       H    0.4458963691    0.8077494217    0.1069015787         -0.3491
H659       H    0.3960404160    0.7785204341    0.0730275629          0.6012
H660       H    0.6182345301    0.6849218649   -0.0104395284         -0.3499
H661       H    0.6383402599    0.7135688913   -0.0696544400         -0.3861
H662       H    0.6239592430    0.6467766098   -0.0669589045         -0.3892
O663       O    0.5605170432    0.6948942606   -0.0658121825          0.5788
N664       N    0.5958886301    0.8154329866   -0.0704905108          0.5893
C617       C    0.5000000000    1.3034249834    0.0000000000           0.596
C618       C    0.5382013164    1.2755831463   -0.0225255378          0.5886
C619       C    0.5381892445    1.2231737301   -0.0228312538          0.5899
C620       C    0.5000000000    1.1965750166    0.0000000000          0.5992
C621       C    0.4628282807    1.2243262371    0.0242000176         -0.3917
C622       C    0.4618669948    1.2769607163    0.0237088168         -0.3939
C623       C    0.6228332901    1.1846174489   -0.0227830148         -0.3841
C624       C    0.5718402879    1.2944301675   -0.0418017013          0.5813
C625       C    0.4145038308    1.3037100734    0.0492719258         -0.3865
C626       C    0.4225865922    1.1952932171    0.0563667428         -0.3749
H627       H    0.3877941912    1.1884914396    0.0339038910          0.5957
H628       H    0.4121622559    1.2157321378    0.0913789769         -0.3483
H629       H    0.4365990945    1.1584814986    0.0705126993         -0.3575
C630       C    0.3905705884    1.3543948906    0.0290727608          0.5875
H631       H    0.4022014370    1.3869095197    0.0528171684         -0.3895
H632       H    0.3488401738    1.3531203765    0.0325933667          0.5784
H633       H    0.3995758621    1.3619156545   -0.0111228670          0.5553
H634       H    0.4214209400    1.3077494217    0.0904460157         -0.3491
H635       H    0.3813504268    1.2785204341    0.0454191462          0.6012
H636       H    0.6172026288    1.1849218649    0.0187598419         -0.3499
H637       H    0.6511646143    1.2135688913   -0.0337494875         -0.3861
H638       H    0.6365608145    1.1467766098   -0.0346487048         -0.3892
O639       O    0.5747605861    1.1948942606   -0.0490347902          0.5788
N640       N    0.6102033766    1.3154329866   -0.0449305829          0.5893
C593       C    0.5000000000    1.0000000000   -0.1965750166           0.596
C594       C    0.5093790822    0.9566551820   -0.2244168537          0.5886
C595       C    0.5096731033    0.9565705674   -0.2768262699          0.5899
C596       C    0.5000000000    1.0000000000   -0.3034249834          0.5992
C597       C    0.4887077100    1.0428936097   -0.2756737629         -0.3917
C598       C    0.4894761205    1.0436518274   -0.2230392837         -0.3939
C599       C    0.4830268897    0.8762300665   -0.3153825511         -0.3841
C600       C    0.5171071879    0.9186627187   -0.2055698325          0.5813
C601       C    0.4800925835    1.0966489130   -0.1962899266         -0.3865
C602       C    0.4708171108    1.0912052870   -0.3047067829         -0.3749
H603       H    0.5030758445    1.1171757507   -0.3115085604          0.5957
H604       H    0.4408547020    1.1121045068   -0.2842678622         -0.3483
H605       H    0.4529842427    1.0823482492   -0.3415185014         -0.3575
C606       C    0.5067896949    1.1130217748   -0.1456051094          0.5875
H607       H    0.4805931329    1.1094421569   -0.1130904803         -0.3895
H608       H    0.5165617453    1.1537443631   -0.1468796235          0.5784
H609       H    0.5421188448    1.0918407783   -0.1380843455          0.5553
H610       H    0.4388307421    1.1030217079   -0.1922505783         -0.3491
H611       H    0.4941690265    1.1269118584   -0.2214795659          0.6012
H612       H    0.4453582537    0.8946308042   -0.3150781351         -0.3499
H613       H    0.4845342973    0.8458877664   -0.2864311087         -0.3861
H614       H    0.4899773782    0.8594690929   -0.3532233902         -0.3892
O615       O    0.5230560822    0.9136172878   -0.3051057394          0.5788
N616       N    0.5080214824    0.8812599591   -0.1845670134          0.5893
C569       C    0.5000000000    1.0000000000    0.1965750166           0.596
C570       C    0.5435171982    0.9914563538    0.2244168537          0.5886
C571       C    0.5436074524    0.9911640146    0.2768262699          0.5899
C572       C    0.5000000000    1.0000000000    0.3034249834          0.5992
C573       C    0.4568971277    1.0104651786    0.2756737629         -0.3917
C574       C    0.4561538300    1.0096823266    0.2230392837         -0.3939
C575       C    0.6234205735    1.0193505804    0.3153825511         -0.3841
C576       C    0.5816512767    0.9844604307    0.2055698325          0.5813
C577       C    0.4029860641    1.0180447735    0.1962899266         -0.3865
C578       C    0.4082502771    1.0274232339    0.3047067829         -0.3749
H579       H    0.3829050874    0.9946709480    0.3115085604          0.5957
H580       H    0.3867786220    1.0569781210    0.2842678622         -0.3483
H581       H    0.4167626763    1.0454231607    0.3415185014         -0.3575
C582       C    0.3871297275    0.9910376828    0.1456051094          0.5875
H583       H    0.3902048145    1.0172982496    0.1130904803         -0.3895
H584       H    0.3466026297    0.9804841756    0.1468796235          0.5784
H585       H    0.4089863321    0.9561224671    0.1380843455          0.5553
H586       H    0.3958208114    1.0591764065    0.1922505783         -0.3491
H587       H    0.3729994656    1.0033888525    0.2214795659          0.6012
H588       H    0.6042987154    1.0566583254    0.3150781351         -0.3499
H589       H    0.6537862541    1.0184270602    0.2864311087         -0.3861
H590       H    0.6403121332    1.0127237609    0.3532233902         -0.3892
O591       O    0.5868101962    0.9786096815    0.3051057394          0.5788
N592       N    0.6188723612    0.9942638658    0.1845670134          0.5893
C545       C    0.6965750166    0.5000000000    0.5000000000           0.596
C546       C    0.7244168537    0.5434777500    0.4912578216          0.5886
C547       C    0.7768262699    0.5435666690    0.4909650735          0.5899
C548       C    0.8034249834    0.5000000000    0.5000000000          0.5992
C549       C    0.7756737629    0.4569453418    0.5106617997         -0.3917
C550       C    0.7230392837    0.4561984787    0.5098823485         -0.3939
C551       C    0.8153825511    0.6235076078    0.5187870627         -0.3841
C552       C    0.7055698325    0.5815795005    0.4840879198          0.5813
C553       C    0.6962899266    0.4030694345    0.5184873766         -0.3865
C554       C    0.8047067829    0.4083763979    0.5278417123         -0.3749
H555       H    0.8115085604    0.3828819842    0.4952054481          0.5957
H556       H    0.7842678622    0.3870398608    0.5574942925         -0.3483
H557       H    0.8415185014    0.4169708637    0.5458025994         -0.3575
C558       C    0.6456051094    0.3870899973    0.4915529386          0.5875
H559       H    0.6130904803    0.3902849108    0.5177991966         -0.3895
H560       H    0.6468796235    0.3465151534    0.4811845151          0.5784
H561       H    0.6380843455    0.4087870142    0.4565383287          0.5553
H562       H    0.6922505783    0.3960919895    0.5596512848         -0.3491
H563       H    0.7214795659    0.3730162559    0.5039684730          0.6012
H564       H    0.8150781351    0.6045562289    0.5561816950         -0.3499
H565       H    0.7864311087    0.6538687571    0.5177249570         -0.3861
H566       H    0.8532233902    0.6403687455    0.5120832158         -0.3892
O567       O    0.8051057394    0.5867116623    0.4782136852          0.5788
N568       N    0.6845670134    0.6188449422    0.4937213683          0.5893
C521       C    1.1965750166    0.5000000000    0.5000000000           0.596
C522       C    1.2244168537    0.5432030595    0.4899882027          0.5886
C523       C    1.2768262699    0.5432833663    0.4896929760          0.5899
C524       C    1.3034249834    0.5000000000    0.5000000000          0.5992
C525       C    1.2756737629    0.4572760724    0.5119182036         -0.3917
C526       C    1.2230392837    0.4565067013    0.5111609607         -0.3939
C527       C    1.3153825511    0.6240048578    0.5151617333         -0.3841
C528       C    1.2055698325    0.5810784742    0.4817054591          0.5813
C529       C    1.1962899266    0.4036524710    0.5213183320         -0.3865
C530       C    1.3047067829    0.4092311261    0.5305132255         -0.3749
H531       H    1.3115085604    0.3827918035    0.4986376376          0.5957
H532       H    1.2842678622    0.3887722017    0.5607779862         -0.3483
H533       H    1.3415185014    0.4183479405    0.5482146944         -0.3575
C534       C    1.1456051094    0.3868910374    0.4948634515          0.5875
H535       H    1.1130904803    0.3908532763    0.5210048782         -0.3895
H536       H    1.1468796235    0.3460299307    0.4856878250          0.5784
H537       H    1.1380843455    0.4075532447    0.4592284036          0.5553
H538       H    1.1922505783    0.3978836208    0.5626689359         -0.3491
H539       H    1.2214795659    0.3731869574    0.5076858492          0.6012
H540       H    1.3150781351    0.6061568164    0.5530953689         -0.3499
H541       H    1.2864311087    0.6543218760    0.5132108710         -0.3861
H542       H    1.3532233902    0.6406624212    0.5079669361         -0.3892
O543       O    1.3051057394    0.5860363907    0.4756834345          0.5788
N544       N    1.1845670134    0.6186100725    0.4902433510          0.5893
C497       C    0.6965750166    0.5000000000    0.0000000000           0.596
C498       C    0.7244168537    0.4706884605   -0.0332802356          0.5886
C499       C    0.7768262699    0.4703904773   -0.0332108523          0.5899
C500       C    0.8034249834    0.5000000000    0.0000000000          0.5992
C501       C    0.7756737629    0.5307623661    0.0319539419         -0.3917
C502       C    0.7230392837    0.5304608264    0.0329904855         -0.3939
C503       C    0.8153825511    0.4545102707   -0.1163519121         -0.3841
C504       C    0.7055698325    0.4454267518   -0.0626910662          0.5813
C505       C    0.6962899266    0.5644796718    0.0746973195         -0.3865
C506       C    0.8047067829    0.5699268044    0.0654239056         -0.3749
H507       H    0.8115085604    0.5544121571    0.1038216477          0.5957
H508       H    0.7842678622    0.6062751490    0.0690737246         -0.3483
H509       H    0.8415185014    0.5811833092    0.0489998560         -0.3575
C510       C    0.6456051094    0.5491448908    0.1020039277          0.5875
H511       H    0.6130904803    0.5702765409    0.0861128329         -0.3895
H512       H    0.6468796235    0.5604550736    0.1423264019          0.5784
H513       H    0.6380843455    0.5079727746    0.1007231875          0.5553
H514       H    0.6922505783    0.6036166349    0.0601559922         -0.3491
H515       H    0.7214795659    0.5669342380    0.1079834609          0.6012
H516       H    0.8150781351    0.4963705439   -0.1186390109         -0.3499
H517       H    0.7864311087    0.4384085574   -0.1421135557         -0.3861
H518       H    0.8532233902    0.4402734201   -0.1276014281         -0.3892
O519       O    0.8051057394    0.4377733568   -0.0641981367          0.5788
N520       N    0.6845670134    0.4351349298   -0.0997800790          0.5893
C473       C    1.3034249834    0.5000000000    0.0000000000           0.596
C474       C    1.2755831463    0.5316447111   -0.0310701254          0.5886
C475       C    1.2231737301    0.5319368872   -0.0309793445          0.5899
C476       C    1.1965750166    0.5000000000    0.0000000000          0.5992
C477       C    1.2243262371    0.4670043213    0.0296422461         -0.3917
C478       C    1.2769607163    0.4672300033    0.0306979053         -0.3939
C479       C    1.1846174489    0.5537964252   -0.1127520623         -0.3841
C480       C    1.2944301675    0.5589700050   -0.0585742922          0.5813
C481       C    1.3037100734    0.4302800969    0.0698316027         -0.3865
C482       C    1.1952932171    0.4255188425    0.0601880601         -0.3749
H483       H    1.1884914396    0.4382120097    0.0996085419          0.5957
H484       H    1.2157321378    0.3890016212    0.0611959690         -0.3483
H485       H    1.1584814986    0.4154813147    0.0429919459         -0.3575
C486       C    1.3543948906    0.4435970838    0.0981770471          0.5875
H487       H    1.3869095197    0.4236717439    0.0807973360         -0.3895
H488       H    1.3531203765    0.4293964677    0.1375745682          0.5784
H489       H    1.3619156545    0.4847538434    0.0998813313          0.5553
H490       H    1.3077494217    0.3922989719    0.0524941803         -0.3491
H491       H    1.2785204341    0.4254214122    0.1028525852          0.6012
H492       H    1.1849218649    0.5122116964   -0.1180646532         -0.3499
H493       H    1.2135688913    0.5717215034   -0.1372799857         -0.3861
H494       H    1.1467766098    0.5688105772   -0.1229410154         -0.3892
O495       O    1.1948942606    0.5667124454   -0.0595231510          0.5788
N496       N    1.3154329866    0.5719207687   -0.0948205912          0.5893
C449       C    1.0000000000    0.5000000000   -0.1965750166           0.596
C450       C    0.9564828018    0.4914563538   -0.2244168537          0.5886
C451       C    0.9563925476    0.4911640146   -0.2768262699          0.5899
C452       C    1.0000000000    0.5000000000   -0.3034249834          0.5992
C453       C    1.0431028723    0.5104651786   -0.2756737629         -0.3917
C454       C    1.0438461700    0.5096823266   -0.2230392837         -0.3939
C455       C    0.8765794265    0.5193505804   -0.3153825511         -0.3841
C456       C    0.9183487233    0.4844604307   -0.2055698325          0.5813
C457       C    1.0970139359    0.5180447735   -0.1962899266         -0.3865
C458       C    1.0917497229    0.5274232339   -0.3047067829         -0.3749
H459       H    1.1170949126    0.4946709480   -0.3115085604          0.5957
H460       H    1.1132213780    0.5569781210   -0.2842678622         -0.3483
H461       H    1.0832373237    0.5454231607   -0.3415185014         -0.3575
C462       C    1.1128702725    0.4910376828   -0.1456051094          0.5875
H463       H    1.1097951855    0.5172982496   -0.1130904803         -0.3895
H464       H    1.1533973703    0.4804841756   -0.1468796235          0.5784
H465       H    1.0910136679    0.4561224671   -0.1380843455          0.5553
H466       H    1.1041791886    0.5591764065   -0.1922505783         -0.3491
H467       H    1.1270005344    0.5033888525   -0.2214795659          0.6012
H468       H    0.8957012846    0.5566583254   -0.3150781351         -0.3499
H469       H    0.8462137459    0.5184270602   -0.2864311087         -0.3861
H470       H    0.8596878668    0.5127237609   -0.3532233902         -0.3892
O471       O    0.9131898038    0.4786096815   -0.3051057394          0.5788
N472       N    0.8811276388    0.4942638658   -0.1845670134          0.5893
C425       C    1.0000000000    0.5000000000    0.1965750166           0.596
C426       C    0.9564828018    0.5085436462    0.2244168537          0.5886
C427       C    0.9563925476    0.5088359854    0.2768262699          0.5899
C428       C    1.0000000000    0.5000000000    0.3034249834          0.5992
C429       C    1.0431028723    0.4895348214    0.2756737629         -0.3917
C430       C    1.0438461700    0.4903176734    0.2230392837         -0.3939
C431       C    0.8765794265    0.4806494196    0.3153825511         -0.3841
C432       C    0.9183487233    0.5155395693    0.2055698325          0.5813
C433       C    1.0970139359    0.4819552265    0.1962899266         -0.3865
C434       C    1.0917497229    0.4725767661    0.3047067829         -0.3749
H435       H    1.1170949126    0.5053290520    0.3115085604          0.5957
H436       H    1.1132213780    0.4430218790    0.2842678622         -0.3483
H437       H    1.0832373237    0.4545768393    0.3415185014         -0.3575
C438       C    1.1128702725    0.5089623172    0.1456051094          0.5875
H439       H    1.1097951855    0.4827017504    0.1130904803         -0.3895
H440       H    1.1533973703    0.5195158244    0.1468796235          0.5784
H441       H    1.0910136679    0.5438775329    0.1380843455          0.5553
H442       H    1.1041791886    0.4408235935    0.1922505783         -0.3491
H443       H    1.1270005344    0.4966111475    0.2214795659          0.6012
H444       H    0.8957012846    0.4433416746    0.3150781351         -0.3499
H445       H    0.8462137459    0.4815729398    0.2864311087         -0.3861
H446       H    0.8596878668    0.4872762391    0.3532233902         -0.3892
O447       O    0.9131898038    0.5213903185    0.3051057394          0.5788
N448       N    0.8811276388    0.5057361342    0.1845670134          0.5893
C401       C    1.0000000000   -0.1965750166    0.5000000000           0.596
C402       C    0.9924009014   -0.2244168537    0.4563079626          0.5886
C403       C    0.9921105857   -0.2768262699    0.4562113977          0.5899
C404       C    1.0000000000   -0.3034249834    0.5000000000          0.5992
C405       C    1.0095291541   -0.2756737629    0.5433194274         -0.3917
C406       C    1.0087303866   -0.2230392837    0.5440455949         -0.3939
C407       C    1.0220192199   -0.3153825511    0.3770274955         -0.3841
C408       C    0.9862325694   -0.2055698325    0.4180313044          0.5813
C409       C    1.0159393057   -0.1962899266    0.5973820114         -0.3865
C410       C    1.0254295841   -0.3047067829    0.5923221623         -0.3749
H411       H    0.9921360274   -0.3115085604    0.6169520213          0.5957
H412       H    1.0545124813   -0.2842678622    0.6144289129         -0.3483
H413       H    1.0436096594   -0.3415185014    0.5842016223         -0.3575
C414       C    0.9885951164   -0.1456051094    0.6126496790          0.5875
H415       H    1.0149161265   -0.1130904803    0.6101440936         -0.3895
H416       H    0.9771663043   -0.1468796235    0.6529386902          0.5784
H417       H    0.9541614858   -0.1380843455    0.5900419694          0.5553
H418       H    1.0569060968   -0.1922505783    0.6054364575         -0.3491
H419       H    1.0006373399   -0.2214795659    0.6270441413          0.6012
H420       H    1.0589040507   -0.3150781351    0.3969529201         -0.3499
H421       H    1.0217536097   -0.2864311087    0.3466489355         -0.3861
H422       H    1.0157598110   -0.3532233902    0.3599963673         -0.3892
O423       O    0.9804949303   -0.3051057394    0.4127468732          0.5788
N424       N    0.9968398801   -0.1845670134    0.3810312851          0.5893
C377       C    1.0000000000    0.1965750166    0.5000000000           0.596
C378       C    0.9924009014    0.2244168537    0.5436920374          0.5886
C379       C    0.9921105857    0.2768262699    0.5437886023          0.5899
C380       C    1.0000000000    0.3034249834    0.5000000000          0.5992
C381       C    1.0095291541    0.2756737629    0.4566805726         -0.3917
C382       C    1.0087303866    0.2230392837    0.4559544051         -0.3939
C383       C    1.0220192199    0.3153825511    0.6229725045         -0.3841
C384       C    0.9862325694    0.2055698325    0.5819686956          0.5813
C385       C    1.0159393057    0.1962899266    0.4026179886         -0.3865
C386       C    1.0254295841    0.3047067829    0.4076778377         -0.3749
H387       H    0.9921360274    0.3115085604    0.3830479787          0.5957
H388       H    1.0545124813    0.2842678622    0.3855710871         -0.3483
H389       H    1.0436096594    0.3415185014    0.4157983777         -0.3575
C390       C    0.9885951164    0.1456051094    0.3873503210          0.5875
H391       H    1.0149161265    0.1130904803    0.3898559064         -0.3895
H392       H    0.9771663043    0.1468796235    0.3470613098          0.5784
H393       H    0.9541614858    0.1380843455    0.4099580306          0.5553
H394       H    1.0569060968    0.1922505783    0.3945635425         -0.3491
H395       H    1.0006373399    0.2214795659    0.3729558587          0.6012
H396       H    1.0589040507    0.3150781351    0.6030470799         -0.3499
H397       H    1.0217536097    0.2864311087    0.6533510645         -0.3861
H398       H    1.0157598110    0.3532233902    0.6400036327         -0.3892
O399       O    0.9804949303    0.3051057394    0.5872531268          0.5788
N400       N    0.9968398801    0.1845670134    0.6189687149          0.5893
C353       C    0.6965750166   -0.0000000000    0.5000000000           0.596
C354       C    0.7244168537    0.0407944255    0.4826058838          0.5886
C355       C    0.7768262699    0.0408220056    0.4823011751          0.5899
C356       C    0.8034249834   -0.0000000000    0.5000000000          0.5992
C357       C    0.7756737629   -0.0399901091    0.5191877237         -0.3917
C358       C    0.7230392837   -0.0408797697    0.5185762887         -0.3939
C359       C    0.8153825511    0.1247484893    0.4932994531         -0.3841
C360       C    0.7055698325    0.0766444733    0.4678436023          0.5813
C361       C    0.6962899266   -0.0911520217    0.5377971764         -0.3865
C362       C    0.8047067829   -0.0840550455    0.5458780419         -0.3749
H363       H    0.8115085604   -0.1156490316    0.5191028496          0.5957
H364       H    0.7842678622   -0.0989213301    0.5792474427         -0.3483
H365       H    0.8415185014   -0.0719903695    0.5617179251         -0.3575
C366       C    0.6456051094   -0.1122709604    0.5146715026          0.5875
H367       H    0.6130904803   -0.1038096801    0.5397210588         -0.3895
H368       H    0.6468796235   -0.1541061487    0.5127638370          0.5784
H369       H    0.6380843455   -0.0981412348    0.4759786829          0.5553
H370       H    0.6922505783   -0.0896197552    0.5795201226         -0.3491
H371       H    0.7214795659   -0.1235283791    0.5296877011          0.6012
H372       H    0.8150781351    0.1137907253    0.5337647555         -0.3499
H373       H    0.7864311087    0.1542604645    0.4860903773         -0.3861
H374       H    0.8532233902    0.1398957226    0.4833094156         -0.3892
O375       O    0.8051057394    0.0804759787    0.4610490984          0.5788
N376       N    0.6845670134    0.1150899560    0.4697040676          0.5893
C329       C    1.1965750166   -0.0000000000    0.5000000000           0.596
C330       C    1.2244168537    0.0399416356    0.4807280987          0.5886
C331       C    1.2768262699    0.0399550195    0.4804224373          0.5899
C332       C    1.3034249834   -0.0000000000    0.5000000000          0.5992
C333       C    1.2756737629   -0.0390548014    0.5210261755         -0.3917
C334       C    1.2230392837   -0.0399719265    0.5204567633         -0.3939
C335       C    1.3153825511    0.1243020787    0.4875069555         -0.3841
C336       C    1.2055698325    0.0750665977    0.4643150577          0.5813
C337       C    1.1962899266   -0.0892962108    0.5419940991         -0.3865
C338       C    1.3047067829   -0.0818312171    0.5497362776         -0.3749
H339       H    1.3115085604   -0.1146358587    0.5244588891          0.5957
H340       H    1.2842678622   -0.0951300334    0.5837607513         -0.3483
H341       H    1.3415185014   -0.0690431671    0.5649981281         -0.3575
C342       C    1.1456051094   -0.1114674603    0.5198752823          0.5875
H343       H    1.1130904803   -0.1018507381    0.5445043745         -0.3895
H344       H    1.1468796235   -0.1533461018    0.5199146596          0.5784
H345       H    1.1380843455   -0.0991519001    0.4805673896          0.5553
H346       H    1.1922505783   -0.0858258392    0.5836006923         -0.3491
H347       H    1.2214795659   -0.1220145807    0.5353986177          0.6012
H348       H    1.3150781351    0.1152374555    0.5284379449         -0.3499
H349       H    1.2864311087    0.1534469814    0.4789336193         -0.3861
H350       H    1.3532233902    0.1389684813    0.4768235029         -0.3892
O351       O    1.3051057394    0.0785780735    0.4573497685          0.5788
N352       N    1.1845670134    0.1135570046    0.4643861236          0.5893
C305       C   -0.0000000000   -0.3034249834    0.0000000000           0.596
C306       C   -0.0344536309   -0.2755831463   -0.0279228893          0.5886
C307       C   -0.0343965190   -0.2231737301   -0.0282234658          0.5899
C308       C   -0.0000000000   -0.1965750166    0.0000000000          0.5992
C309       C    0.0331879151   -0.2243262371    0.0294268561         -0.3917
C310       C    0.0342112288   -0.2769607163    0.0290830862         -0.3939
C311       C   -0.1181185821   -0.1846174489   -0.0406827174         -0.3841
C312       C   -0.0648751222   -0.2944301675   -0.0519579418          0.5813
C313       C    0.0772773107   -0.3037100734    0.0613639542         -0.3865
C314       C    0.0682349447   -0.1952932171    0.0671865889         -0.3749
H315       H    0.1059645402   -0.1884914396    0.0501112120          0.5957
H316       H    0.0733714665   -0.2157321378    0.1033547997         -0.3483
H317       H    0.0522860537   -0.1584814986    0.0791067896         -0.3575
C318       C    0.1039324640   -0.3543948906    0.0449228726          0.5875
H319       H    0.0889208218   -0.3869095197    0.0666880772         -0.3895
H320       H    0.1446846143   -0.3531203765    0.0545708987          0.5784
H321       H    0.1009653237   -0.3619156545    0.0038378446          0.5553
H322       H    0.0643522658   -0.3077494217    0.1010640208         -0.3491
H323       H    0.1106360852   -0.2785204341    0.0624521953          0.6012
H324       H   -0.1186880781   -0.1849218649    0.0012361204         -0.3499
H325       H   -0.1445185220   -0.2135688913   -0.0557150367         -0.3861
H326       H   -0.1299421556   -0.1467766098   -0.0544465335         -0.3892
O327       O   -0.0666946077   -0.1948942606   -0.0595431372          0.5788
N328       N   -0.1023547897   -0.3154329866   -0.0607209891          0.5893
C281       C   -0.0000000000    0.3034249834    0.0000000000           0.596
C282       C   -0.0045284022    0.2755831463   -0.0441161422          0.5886
C283       C   -0.0048112632    0.2231737301   -0.0442327514          0.5899
C284       C   -0.0000000000    0.1965750166    0.0000000000          0.5992
C285       C    0.0064797717    0.2243262371    0.0438792676         -0.3917
C286       C    0.0056322287    0.2769607163    0.0445478628         -0.3939
C287       C    0.0305557452    0.1846174489   -0.1211339315         -0.3841
C288       C   -0.0080078275    0.2944301675   -0.0827301873          0.5813
C289       C    0.0090976909    0.3037100734    0.0982575678         -0.3865
C290       C    0.0189182444    0.1952932171    0.0938730282         -0.3749
H291       H   -0.0160145132    0.1884914396    0.1161169786          0.5957
H292       H    0.0463858155    0.2157321378    0.1179573772         -0.3483
H293       H    0.0376211728    0.1584814986    0.0870423054         -0.3575
C294       C   -0.0192462315    0.3543948906    0.1115777940          0.5875
H295       H    0.0071855085    0.3869095197    0.1109169990         -0.3895
H296       H   -0.0334615365    0.3531203765    0.1509700175          0.5784
H297       H   -0.0520164700    0.3619156545    0.0866199312          0.5553
H298       H    0.0494017568    0.3077494217    0.1091540968         -0.3491
H299       H   -0.0082389593    0.2785204341    0.1267783089          0.6012
H300       H    0.0659585685    0.1849218649   -0.0986805711         -0.3499
H301       H    0.0324128958    0.2135688913   -0.1514568344         -0.3861
H302       H    0.0255013466    0.1467766098   -0.1385607092         -0.3892
O303       O   -0.0133623033    0.1948942606   -0.0884025155          0.5788
N304       N    0.0051582285    0.3154329866   -0.1188988401          0.5893
C257       C   -0.3034249834   -0.0000000000    0.0000000000           0.596
C258       C   -0.2755831463   -0.0371986492   -0.0241454121          0.5886
C259       C   -0.2231737301   -0.0374668925   -0.0239982606          0.5899
C260       C   -0.1965750166   -0.0000000000    0.0000000000          0.5992
C261       C   -0.2243262371    0.0382381798    0.0224770810         -0.3917
C262       C   -0.2769607163    0.0382272618    0.0235565390         -0.3939
C263       C   -0.1846174489   -0.0751742184   -0.0997793556         -0.3841
C264       C   -0.2944301675   -0.0694542213   -0.0456565477          0.5813
C265       C   -0.3037100734    0.0822307543    0.0545474166         -0.3865
C266       C   -0.1952932171    0.0849760397    0.0441488173         -0.3749
H267       H   -0.1884914396    0.0803880544    0.0853075499          0.5957
H268       H   -0.2157321378    0.1209624589    0.0378638383         -0.3483
H269       H   -0.1584814986    0.0913877458    0.0252981322         -0.3575
C270       C   -0.3543948906    0.0748257637    0.0849772124          0.5875
H271       H   -0.3869095197    0.0908906385    0.0639773713         -0.3895
H272       H   -0.3531203765    0.0965882362    0.1207573320          0.5784
H273       H   -0.3619156545    0.0348329032    0.0948440536          0.5553
H274       H   -0.3077494217    0.1159981319    0.0299930628         -0.3491
H275       H   -0.2785204341    0.0935685000    0.0859392568          0.6012
H276       H   -0.1849218649   -0.0354805853   -0.1132674531         -0.3499
H277       H   -0.2135688913   -0.0976251429   -0.1202459978         -0.3861
H278       H   -0.1467766098   -0.0919168094   -0.1067740088         -0.3892
O279       O   -0.1948942606   -0.0772305333   -0.0450444294          0.5788
N280       N   -0.3154329866   -0.0893642881   -0.0785974905          0.5893
C233       C    0.1965750166   -0.0000000000    0.0000000000           0.596
C234       C    0.2244168537    0.0433052213   -0.0095602427          0.5886
C235       C    0.2768262699    0.0433886057   -0.0098546150          0.5899
C236       C    0.3034249834   -0.0000000000    0.0000000000          0.5992
C237       C    0.2756737629   -0.0428460170    0.0114715470         -0.3917
C238       C    0.2230392837   -0.0436074411    0.0107063137         -0.3939
C239       C    0.3153825511    0.1238398231    0.0164554290         -0.3841
C240       C    0.2055698325    0.0812650380   -0.0174471429          0.5813
C241       C    0.1962899266   -0.0965648270    0.0203113712         -0.3865
C242       C    0.3047067829   -0.0910824641    0.0295640008         -0.3749
H243       H    0.3115085604   -0.1171875877   -0.0025858577          0.5957
H244       H    0.2842678622   -0.1118562160    0.0596135359         -0.3483
H245       H    0.3415185014   -0.0821509371    0.0473596781         -0.3575
C246       C    0.1456051094   -0.1130491773   -0.0063170452          0.5875
H247       H    0.1130904803   -0.1093600520    0.0198643201         -0.3895
H248       H    0.1468796235   -0.1538122705   -0.0159187323          0.5784
H249       H    0.1380843455   -0.0920160916   -0.0417344526          0.5553
H250       H    0.1922505783   -0.1027650335    0.0615994992         -0.3491
H251       H    0.2214795659   -0.1268863672    0.0063615931          0.6012
H252       H    0.3150781351    0.1055967542    0.0542006768         -0.3499
H253       H    0.2864311087    0.1541755548    0.0148211610         -0.3861
H254       H    0.3532233902    0.1405715873    0.0094349168         -0.3892
O255       O    0.3051057394    0.0862855500   -0.0234170822          0.5788
N256       N    0.1845670134    0.1187054618   -0.0085179132          0.5893
C209       C   -0.0000000000    0.0000000000   -0.3034249834           0.596
C210       C   -0.0441390952   -0.0042989197   -0.2755831463          0.5886
C211       C   -0.0443094175   -0.0040447578   -0.2231737301          0.5899
C212       C   -0.0000000000    0.0000000000   -0.1965750166          0.5992
C213       C    0.0442934000    0.0023392915   -0.2243262371         -0.3917
C214       C    0.0447808865    0.0033024663   -0.2769607163         -0.3939
C215       C   -0.1126824209   -0.0539421444   -0.1846174489         -0.3841
C216       C   -0.0826773299   -0.0085362944   -0.2944301675          0.5813
C217       C    0.0981129711    0.0105433641   -0.3037100734         -0.3865
C218       C    0.0957603415    0.0000489564   -0.1952932171         -0.3749
H219       H    0.1106448807    0.0386953194   -0.1884914396          0.5957
H220       H    0.1248077895   -0.0221043525   -0.2157321378         -0.3483
H221       H    0.0927692250   -0.0196363561   -0.1584814986         -0.3575
C222       C    0.1055555451    0.0409639895   -0.3543948906          0.5875
H223       H    0.1101428936    0.0149249848   -0.3869095197         -0.3895
H224       H    0.1413519357    0.0626996879   -0.3531203765          0.5784
H225       H    0.0746016448    0.0681419125   -0.3619156545          0.5553
H226       H    0.1167762371   -0.0268041201   -0.3077494217         -0.3491
H227       H    0.1226350314    0.0331853751   -0.2785204341          0.6012
H228       H   -0.0836620008   -0.0841965409   -0.1849218649         -0.3499
H229       H   -0.1420368020   -0.0617682393   -0.2135688913         -0.3861
H230       H   -0.1307650455   -0.0524394096   -0.1467766098         -0.3892
O231       O   -0.0892977933   -0.0044113483   -0.1948942606          0.5788
N232       N   -0.1155218222   -0.0286050711   -0.3154329866          0.5893
C185       C   -0.0000000000    0.0000000000    0.1965750166           0.596
C186       C    0.0431503500   -0.0102365875    0.2244168537          0.5886
C187       C    0.0432291188   -0.0105322283    0.2768262699          0.5899
C188       C   -0.0000000000    0.0000000000    0.3034249834          0.5992
C189       C   -0.0426612994    0.0121404736    0.2756737629         -0.3917
C190       C   -0.0434346025    0.0113872464    0.2230392837         -0.3939
C191       C    0.1240821130    0.0145159276    0.3153825511         -0.3841
C192       C    0.0809821294   -0.0187164078    0.2055698325          0.5813
C193       C   -0.0962352346    0.0218196524    0.1962899266         -0.3865
C194       C   -0.0906087843    0.0309853773    0.3047067829         -0.3749
H195       H   -0.1172137008   -0.0007521288    0.3115085604          0.5957
H196       H   -0.1109098655    0.0613562422    0.2842678622         -0.3483
H197       H   -0.0813999352    0.0486391419    0.3415185014         -0.3575
C198       C   -0.1131341718   -0.0045476055    0.1456051094          0.5875
H199       H   -0.1090358878    0.0215728386    0.1130904803         -0.3895
H200       H   -0.1540424954   -0.0135103744    0.1468796235          0.5784
H201       H   -0.0926577695   -0.0402897430    0.1380843455          0.5553
H202       H   -0.1017887251    0.0631997299    0.1922505783         -0.3491
H203       H   -0.1267713095    0.0083459654    0.2214795659          0.6012
H204       H    0.1064318055    0.0525419704    0.3150781351         -0.3499
H205       H    0.1543885636    0.0124072538    0.2864311087         -0.3861
H206       H    0.1407019927    0.0072345044    0.3532233902         -0.3892
O207       O    0.0859086266   -0.0247641629    0.3051057394          0.5788
N208       N    0.1185576695   -0.0103740304    0.1845670134          0.5893
loop_
_geom_bond_atom_site_label_1
_geom_bond_atom_site_label_2
_geom_bond_distance
_geom_bond_site_symmetry_2
_ccdc_geom_bond_type
Zn1          O5 1.942       .   S
Zn1          O6 1.922       .   S
Zn1         O10 1.922       .   S
Zn1         O17 1.922       .   S
Zn2          O5 1.942       .   S
Zn2          O7 1.922       .   S
Zn2          O9 1.922       .   S
Zn2         O13 1.922       .   S
Zn3          O5 1.942       .   S
Zn3          O8 1.922       .   S
Zn3         O11 1.922       .   S
Zn3         O14 1.922       .   S
Zn4          O5 1.942       .   S
Zn4         O12 1.922       .   S
Zn4         O15 1.922       .   S
Zn4         O16 1.922       .   S
O6          C18 1.304       .   A
O7          C19 1.304       .   A
O8          C20 1.304       .   A
O9          C18 1.304       .   A
O10         C20 1.304       .   A
O11         C19 1.304       .   A
O12         C21 1.304       .   A
O13         C22 1.304       .   A
O14         C21 1.304       .   A
O15         C22 1.304       .   A
O16         C23 1.304       .   A
O17         C23 1.304       .   A
C18        C185 1.540       .   S
C19        C233 1.540       .   S
C20        C308 1.540       .   S
C21        C212 1.540       .   S
C22        C284 1.540       .   S
C23        C260 1.540       .   S
Zn24        O28 1.942       .   S
Zn24        O29 1.922       .   S
Zn24        O33 1.922       .   S
Zn24        O40 1.922       .   S
Zn25        O28 1.942       .   S
Zn25        O30 1.922       .   S
Zn25        O32 1.922       .   S
Zn25        O36 1.922       .   S
Zn26        O28 1.942       .   S
Zn26        O31 1.922       .   S
Zn26        O34 1.922       .   S
Zn26        O37 1.922       .   S
Zn27        O28 1.942       .   S
Zn27        O35 1.922       .   S
Zn27        O38 1.922       .   S
Zn27        O39 1.922       .   S
O29         C41 1.304       .   A
O30         C42 1.304       .   A
O31         C43 1.304       .   A
O32         C41 1.304       .   A
O33         C43 1.304       .   A
O34         C42 1.304       .   A
O35         C44 1.304       .   A
O36         C45 1.304       .   A
O37         C44 1.304       .   A
O38         C45 1.304       .   A
O39         C46 1.304       .   A
O40         C46 1.304       .   A
C41        C188 1.540   1_655   S
C42        C329 1.540       .   S
C43        C377 1.540       .   S
C44        C209 1.540   1_656   S
C45        C401 1.540       .   S
C46        C356 1.540       .   S
Zn47        O51 1.942       .   S
Zn47        O52 1.922       .   S
Zn47        O56 1.922       .   S
Zn47        O63 1.922       .   S
Zn48        O51 1.942       .   S
Zn48        O53 1.922       .   S
Zn48        O55 1.922       .   S
Zn48        O59 1.922       .   S
Zn49        O51 1.942       .   S
Zn49        O54 1.922       .   S
Zn49        O57 1.922       .   S
Zn49        O60 1.922       .   S
Zn50        O51 1.942       .   S
Zn50        O58 1.922       .   S
Zn50        O61 1.922       .   S
Zn50        O62 1.922       .   S
O52         C64 1.304       .   A
O53         C65 1.304       .   A
O54         C66 1.304       .   A
O55         C64 1.304       .   A
O56         C66 1.304       .   A
O57         C65 1.304       .   A
O58         C67 1.304       .   A
O59         C68 1.304       .   A
O60         C67 1.304       .   A
O61         C68 1.304       .   A
O62         C69 1.304       .   A
O63         C69 1.304       .   A
C64        C281 1.540   1_655   S
C65        C425 1.540       .   S
C66        C476 1.540       .   S
C67        C305 1.540   1_665   S
C68        C500 1.540       .   S
C69        C449 1.540       .   S
Zn70        O74 1.942       .   S
Zn70        O75 1.922       .   S
Zn70        O79 1.922       .   S
Zn70        O86 1.922       .   S
Zn71        O74 1.942       .   S
Zn71        O76 1.922       .   S
Zn71        O78 1.922       .   S
Zn71        O82 1.922       .   S
Zn72        O74 1.942       .   S
Zn72        O77 1.922       .   S
Zn72        O80 1.922       .   S
Zn72        O83 1.922       .   S
Zn73        O74 1.942       .   S
Zn73        O81 1.922       .   S
Zn73        O84 1.922       .   S
Zn73        O85 1.922       .   S
O75         C87 1.304       .   A
O76         C88 1.304       .   A
O77         C89 1.304       .   A
O78         C87 1.304       .   A
O79         C89 1.304       .   A
O80         C88 1.304       .   A
O81         C90 1.304       .   A
O82         C91 1.304       .   A
O83         C90 1.304       .   A
O84         C91 1.304       .   A
O85         C92 1.304       .   A
O86         C92 1.304       .   A
C87        C428 1.540       .   S
C88        C380 1.540       .   S
C89        C521 1.540       .   S
C90        C452 1.540   1_556   S
C91        C548 1.540       .   S
C92        C404 1.540   1_565   S
Zn93        O97 1.942       .   S
Zn93        O98 1.922       .   S
Zn93       O102 1.922       .   S
Zn93       O109 1.922       .   S
Zn94        O97 1.942       .   S
Zn94        O99 1.922       .   S
Zn94       O101 1.922       .   S
Zn94       O105 1.922       .   S
Zn95        O97 1.942       .   S
Zn95       O100 1.922       .   S
Zn95       O103 1.922       .   S
Zn95       O106 1.922       .   S
Zn96        O97 1.942       .   S
Zn96       O104 1.922       .   S
Zn96       O107 1.922       .   S
Zn96       O108 1.922       .   S
O98        C110 1.304       .   A
O99        C111 1.304       .   A
O100       C112 1.304       .   A
O101       C110 1.304       .   A
O102       C112 1.304       .   A
O103       C111 1.304       .   A
O104       C113 1.304       .   A
O105       C114 1.304       .   A
O106       C113 1.304       .   A
O107       C114 1.304       .   A
O108       C115 1.304       .   A
O109       C115 1.304       .   A
C110       C569 1.540       .   S
C111       C236 1.540   1_565   S
C112       C620 1.540       .   S
C113       C593 1.540       .   S
C114       C641 1.540       .   S
C115       C257 1.540   1_665   S
Zn116      O120 1.942       .   S
Zn116      O121 1.922       .   S
Zn116      O125 1.922       .   S
Zn116      O132 1.922       .   S
Zn117      O120 1.942       .   S
Zn117      O122 1.922       .   S
Zn117      O124 1.922       .   S
Zn117      O128 1.922       .   S
Zn118      O120 1.942       .   S
Zn118      O123 1.922       .   S
Zn118      O126 1.922       .   S
Zn118      O129 1.922       .   S
Zn119      O120 1.942       .   S
Zn119      O127 1.922       .   S
Zn119      O130 1.922       .   S
Zn119      O131 1.922       .   S
O121       C133 1.304       .   A
O122       C134 1.304       .   A
O123       C135 1.304       .   A
O124       C133 1.304       .   A
O125       C135 1.304       .   A
O126       C134 1.304       .   A
O127       C136 1.304       .   A
O128       C137 1.304       .   A
O129       C136 1.304       .   A
O130       C137 1.304       .   A
O131       C138 1.304       .   A
O132       C138 1.304       .   A
C133       C572 1.540       .   S
C134       C332 1.540   1_465   S
C135       C689 1.540       .   S
C136       C596 1.540   1_556   S
C137       C665 1.540       .   S
C138       C353 1.540   1_565   S
Zn139      O143 1.942       .   S
Zn139      O144 1.922       .   S
Zn139      O148 1.922       .   S
Zn139      O155 1.922       .   S
Zn140      O143 1.942       .   S
Zn140      O145 1.922       .   S
Zn140      O147 1.922       .   S
Zn140      O151 1.922       .   S
Zn141      O143 1.942       .   S
Zn141      O146 1.922       .   S
Zn141      O149 1.922       .   S
Zn141      O152 1.922       .   S
Zn142      O143 1.942       .   S
Zn142      O150 1.922       .   S
Zn142      O153 1.922       .   S
Zn142      O154 1.922       .   S
O144       C156 1.304       .   A
O145       C157 1.304       .   A
O146       C158 1.304       .   A
O147       C156 1.304       .   A
O148       C158 1.304       .   A
O149       C157 1.304       .   A
O150       C159 1.304       .   A
O151       C160 1.304       .   A
O152       C159 1.304       .   A
O153       C160 1.304       .   A
O154       C161 1.304       .   A
O155       C161 1.304       .   A
C156       C713 1.540       .   S
C157       C473 1.540   1_455   S
C158       C644 1.540       .   S
C159       C737 1.540       .   S
C160       C617 1.540   1_545   S
C161       C497 1.540       .   S
Zn162      O166 1.942       .   S
Zn162      O167 1.922       .   S
Zn162      O171 1.922       .   S
Zn162      O178 1.922       .   S
Zn163      O166 1.942       .   S
Zn163      O168 1.922       .   S
Zn163      O170 1.922       .   S
Zn163      O174 1.922       .   S
Zn164      O166 1.942       .   S
Zn164      O169 1.922       .   S
Zn164      O172 1.922       .   S
Zn164      O175 1.922       .   S
Zn165      O166 1.942       .   S
Zn165      O173 1.922       .   S
Zn165      O176 1.922       .   S
Zn165      O177 1.922       .   S
O167       C179 1.304       .   A
O168       C180 1.304       .   A
O169       C181 1.304       .   A
O170       C179 1.304       .   A
O171       C181 1.304       .   A
O172       C180 1.304       .   A
O173       C182 1.304       .   A
O174       C183 1.304       .   A
O175       C182 1.304       .   A
O176       C183 1.304       .   A
O177       C184 1.304       .   A
O178       C184 1.304       .   A
C179       C524 1.540   1_455   S
C180       C668 1.540   1_545   S
C181       C716 1.540       .   S
C182       C545 1.540       .   S
C183       C740 1.540   1_556   S
C184       C692 1.540       .   S
C737       C738 0.048       .   A
C737       C742 0.048       .   A
C738       C739 0.048       .   A
C738       C744 0.039       .   A
C739       C740 0.047       .   A
C739       O759 0.048       .   A
C740       C741 0.048       .   A
C741       C742 0.048       .   A
C741       C746 0.054       .   A
C742       C745 0.055       .   A
C743       H756 0.038       .   A
C743       H757 0.038       .   A
C743       H758 0.038       .   A
C743       O759 0.051       .   A
C744       N760 0.040       .   A
C745       C750 0.054       .   A
C745       H754 0.038       .   A
C745       H755 0.038       .   A
C746       H747 0.038       .   A
C746       H748 0.038       .   A
C746       H749 0.038       .   A
C750       H751 0.038       .   A
C750       H752 0.038       .   A
C750       H753 0.038       .   A
C713       C714 0.048       .   A
C713       C718 0.048       .   A
C714       C715 0.048       .   A
C714       C720 0.039       .   A
C715       C716 0.047       .   A
C715       O735 0.048       .   A
C716       C717 0.048       .   A
C717       C718 0.048       .   A
C717       C722 0.054       .   A
C718       C721 0.055       .   A
C719       H732 0.038       .   A
C719       H733 0.038       .   A
C719       H734 0.038       .   A
C719       O735 0.051       .   A
C720       N736 0.040       .   A
C721       C726 0.054       .   A
C721       H730 0.038       .   A
C721       H731 0.038       .   A
C722       H723 0.038       .   A
C722       H724 0.038       .   A
C722       H725 0.038       .   A
C726       H727 0.038       .   A
C726       H728 0.038       .   A
C726       H729 0.038       .   A
C689       C690 0.048       .   A
C689       C694 0.048       .   A
C690       C691 0.048       .   A
C690       C696 0.039       .   A
C691       C692 0.047       .   A
C691       O711 0.048       .   A
C692       C693 0.048       .   A
C693       C694 0.048       .   A
C693       C698 0.054       .   A
C694       C697 0.055       .   A
C695       H708 0.038       .   A
C695       H709 0.038       .   A
C695       H710 0.038       .   A
C695       O711 0.051       .   A
C696       N712 0.040       .   A
C697       C702 0.054       .   A
C697       H706 0.038       .   A
C697       H707 0.038       .   A
C698       H699 0.038       .   A
C698       H700 0.038       .   A
C698       H701 0.038       .   A
C702       H703 0.038       .   A
C702       H704 0.038       .   A
C702       H705 0.038       .   A
C665       C666 0.048       .   A
C665       C670 0.048       .   A
C666       C667 0.048       .   A
C666       C672 0.039       .   A
C667       C668 0.047       .   A
C667       O687 0.048       .   A
C668       C669 0.048       .   A
C669       C670 0.048       .   A
C669       C674 0.054       .   A
C670       C673 0.055       .   A
C671       H684 0.038       .   A
C671       H685 0.038       .   A
C671       H686 0.038       .   A
C671       O687 0.051       .   A
C672       N688 0.040       .   A
C673       C678 0.054       .   A
C673       H682 0.038       .   A
C673       H683 0.038       .   A
C674       H675 0.038       .   A
C674       H676 0.038       .   A
C674       H677 0.038       .   A
C678       H679 0.038       .   A
C678       H680 0.038       .   A
C678       H681 0.038       .   A
C641       C642 0.048       .   A
C641       C646 0.048       .   A
C642       C643 0.048       .   A
C642       C648 0.039       .   A
C643       C644 0.047       .   A
C643       O663 0.048       .   A
C644       C645 0.048       .   A
C645       C646 0.048       .   A
C645       C650 0.054       .   A
C646       C649 0.055       .   A
C647       H660 0.038       .   A
C647       H661 0.038       .   A
C647       H662 0.038       .   A
C647       O663 0.051       .   A
C648       N664 0.040       .   A
C649       C654 0.054       .   A
C649       H658 0.038       .   A
C649       H659 0.038       .   A
C650       H651 0.038       .   A
C650       H652 0.038       .   A
C650       H653 0.038       .   A
C654       H655 0.038       .   A
C654       H656 0.038       .   A
C654       H657 0.038       .   A
C617       C618 0.048       .   A
C617       C622 0.048       .   A
C618       C619 0.048       .   A
C618       C624 0.039       .   A
C619       C620 0.047       .   A
C619       O639 0.048       .   A
C620       C621 0.048       .   A
C621       C622 0.048       .   A
C621       C626 0.054       .   A
C622       C625 0.055       .   A
C623       H636 0.038       .   A
C623       H637 0.038       .   A
C623       H638 0.038       .   A
C623       O639 0.051       .   A
C624       N640 0.040       .   A
C625       C630 0.054       .   A
C625       H634 0.038       .   A
C625       H635 0.038       .   A
C626       H627 0.038       .   A
C626       H628 0.038       .   A
C626       H629 0.038       .   A
C630       H631 0.038       .   A
C630       H632 0.038       .   A
C630       H633 0.038       .   A
C593       C594 0.048       .   A
C593       C598 0.048       .   A
C594       C595 0.048       .   A
C594       C600 0.039       .   A
C595       C596 0.047       .   A
C595       O615 0.048       .   A
C596       C597 0.048       .   A
C597       C598 0.048       .   A
C597       C602 0.054       .   A
C598       C601 0.055       .   A
C599       H612 0.038       .   A
C599       H613 0.038       .   A
C599       H614 0.038       .   A
C599       O615 0.051       .   A
C600       N616 0.040       .   A
C601       C606 0.054       .   A
C601       H610 0.038       .   A
C601       H611 0.038       .   A
C602       H603 0.038       .   A
C602       H604 0.038       .   A
C602       H605 0.038       .   A
C606       H607 0.038       .   A
C606       H608 0.038       .   A
C606       H609 0.038       .   A
C569       C570 0.048       .   A
C569       C574 0.048       .   A
C570       C571 0.048       .   A
C570       C576 0.039       .   A
C571       C572 0.047       .   A
C571       O591 0.048       .   A
C572       C573 0.048       .   A
C573       C574 0.048       .   A
C573       C578 0.054       .   A
C574       C577 0.055       .   A
C575       H588 0.038       .   A
C575       H589 0.038       .   A
C575       H590 0.038       .   A
C575       O591 0.051       .   A
C576       N592 0.040       .   A
C577       C582 0.054       .   A
C577       H586 0.038       .   A
C577       H587 0.038       .   A
C578       H579 0.038       .   A
C578       H580 0.038       .   A
C578       H581 0.038       .   A
C582       H583 0.038       .   A
C582       H584 0.038       .   A
C582       H585 0.038       .   A
C545       C546 0.048       .   A
C545       C550 0.048       .   A
C546       C547 0.048       .   A
C546       C552 0.039       .   A
C547       C548 0.047       .   A
C547       O567 0.048       .   A
C548       C549 0.048       .   A
C549       C550 0.048       .   A
C549       C554 0.054       .   A
C550       C553 0.055       .   A
C551       H564 0.038       .   A
C551       H565 0.038       .   A
C551       H566 0.038       .   A
C551       O567 0.051       .   A
C552       N568 0.040       .   A
C553       C558 0.054       .   A
C553       H562 0.038       .   A
C553       H563 0.038       .   A
C554       H555 0.038       .   A
C554       H556 0.038       .   A
C554       H557 0.038       .   A
C558       H559 0.038       .   A
C558       H560 0.038       .   A
C558       H561 0.038       .   A
C521       C522 0.048       .   A
C521       C526 0.048       .   A
C522       C523 0.048       .   A
C522       C528 0.039       .   A
C523       C524 0.047       .   A
C523       O543 0.048       .   A
C524       C525 0.048       .   A
C525       C526 0.048       .   A
C525       C530 0.054       .   A
C526       C529 0.055       .   A
C527       H540 0.038       .   A
C527       H541 0.038       .   A
C527       H542 0.038       .   A
C527       O543 0.051       .   A
C528       N544 0.040       .   A
C529       C534 0.054       .   A
C529       H538 0.038       .   A
C529       H539 0.038       .   A
C530       H531 0.038       .   A
C530       H532 0.038       .   A
C530       H533 0.038       .   A
C534       H535 0.038       .   A
C534       H536 0.038       .   A
C534       H537 0.038       .   A
C497       C498 0.048       .   A
C497       C502 0.048       .   A
C498       C499 0.048       .   A
C498       C504 0.039       .   A
C499       C500 0.047       .   A
C499       O519 0.048       .   A
C500       C501 0.048       .   A
C501       C502 0.048       .   A
C501       C506 0.054       .   A
C502       C505 0.055       .   A
C503       H516 0.038       .   A
C503       H517 0.038       .   A
C503       H518 0.038       .   A
C503       O519 0.051       .   A
C504       N520 0.040       .   A
C505       C510 0.054       .   A
C505       H514 0.038       .   A
C505       H515 0.038       .   A
C506       H507 0.038       .   A
C506       H508 0.038       .   A
C506       H509 0.038       .   A
C510       H511 0.038       .   A
C510       H512 0.038       .   A
C510       H513 0.038       .   A
C473       C474 0.048       .   A
C473       C478 0.048       .   A
C474       C475 0.048       .   A
C474       C480 0.039       .   A
C475       C476 0.047       .   A
C475       O495 0.048       .   A
C476       C477 0.048       .   A
C477       C478 0.048       .   A
C477       C482 0.054       .   A
C478       C481 0.055       .   A
C479       H492 0.038       .   A
C479       H493 0.038       .   A
C479       H494 0.038       .   A
C479       O495 0.051       .   A
C480       N496 0.040       .   A
C481       C486 0.054       .   A
C481       H490 0.038       .   A
C481       H491 0.038       .   A
C482       H483 0.038       .   A
C482       H484 0.038       .   A
C482       H485 0.038       .   A
C486       H487 0.038       .   A
C486       H488 0.038       .   A
C486       H489 0.038       .   A
C449       C450 0.048       .   A
C449       C454 0.048       .   A
C450       C451 0.048       .   A
C450       C456 0.039       .   A
C451       C452 0.047       .   A
C451       O471 0.048       .   A
C452       C453 0.048       .   A
C453       C454 0.048       .   A
C453       C458 0.054       .   A
C454       C457 0.055       .   A
C455       H468 0.038       .   A
C455       H469 0.038       .   A
C455       H470 0.038       .   A
C455       O471 0.051       .   A
C456       N472 0.040       .   A
C457       C462 0.054       .   A
C457       H466 0.038       .   A
C457       H467 0.038       .   A
C458       H459 0.038       .   A
C458       H460 0.038       .   A
C458       H461 0.038       .   A
C462       H463 0.038       .   A
C462       H464 0.038       .   A
C462       H465 0.038       .   A
C425       C426 0.048       .   A
C425       C430 0.048       .   A
C426       C427 0.048       .   A
C426       C432 0.039       .   A
C427       C428 0.047       .   A
C427       O447 0.048       .   A
C428       C429 0.048       .   A
C429       C430 0.048       .   A
C429       C434 0.054       .   A
C430       C433 0.055       .   A
C431       H444 0.038       .   A
C431       H445 0.038       .   A
C431       H446 0.038       .   A
C431       O447 0.051       .   A
C432       N448 0.040       .   A
C433       C438 0.054       .   A
C433       H442 0.038       .   A
C433       H443 0.038       .   A
C434       H435 0.038       .   A
C434       H436 0.038       .   A
C434       H437 0.038       .   A
C438       H439 0.038       .   A
C438       H440 0.038       .   A
C438       H441 0.038       .   A
C401       C402 0.048       .   A
C401       C406 0.048       .   A
C402       C403 0.048       .   A
C402       C408 0.039       .   A
C403       C404 0.047       .   A
C403       O423 0.048       .   A
C404       C405 0.048       .   A
C405       C406 0.048       .   A
C405       C410 0.054       .   A
C406       C409 0.055       .   A
C407       H420 0.038       .   A
C407       H421 0.038       .   A
C407       H422 0.038       .   A
C407       O423 0.051       .   A
C408       N424 0.040       .   A
C409       C414 0.054       .   A
C409       H418 0.038       .   A
C409       H419 0.038       .   A
C410       H411 0.038       .   A
C410       H412 0.038       .   A
C410       H413 0.038       .   A
C414       H415 0.038       .   A
C414       H416 0.038       .   A
C414       H417 0.038       .   A
C377       C378 0.048       .   A
C377       C382 0.048       .   A
C378       C379 0.048       .   A
C378       C384 0.039       .   A
C379       C380 0.047       .   A
C379       O399 0.048       .   A
C380       C381 0.048       .   A
C381       C382 0.048       .   A
C381       C386 0.054       .   A
C382       C385 0.055       .   A
C383       H396 0.038       .   A
C383       H397 0.038       .   A
C383       H398 0.038       .   A
C383       O399 0.051       .   A
C384       N400 0.040       .   A
C385       C390 0.054       .   A
C385       H394 0.038       .   A
C385       H395 0.038       .   A
C386       H387 0.038       .   A
C386       H388 0.038       .   A
C386       H389 0.038       .   A
C390       H391 0.038       .   A
C390       H392 0.038       .   A
C390       H393 0.038       .   A
C353       C354 0.048       .   A
C353       C358 0.048       .   A
C354       C355 0.048       .   A
C354       C360 0.039       .   A
C355       C356 0.047       .   A
C355       O375 0.048       .   A
C356       C357 0.048       .   A
C357       C358 0.048       .   A
C357       C362 0.054       .   A
C358       C361 0.055       .   A
C359       H372 0.038       .   A
C359       H373 0.038       .   A
C359       H374 0.038       .   A
C359       O375 0.051       .   A
C360       N376 0.040       .   A
C361       C366 0.054       .   A
C361       H370 0.038       .   A
C361       H371 0.038       .   A
C362       H363 0.038       .   A
C362       H364 0.038       .   A
C362       H365 0.038       .   A
C366       H367 0.038       .   A
C366       H368 0.038       .   A
C366       H369 0.038       .   A
C329       C330 0.048       .   A
C329       C334 0.048       .   A
C330       C331 0.048       .   A
C330       C336 0.039       .   A
C331       C332 0.047       .   A
C331       O351 0.048       .   A
C332       C333 0.048       .   A
C333       C334 0.048       .   A
C333       C338 0.054       .   A
C334       C337 0.055       .   A
C335       H348 0.038       .   A
C335       H349 0.038       .   A
C335       H350 0.038       .   A
C335       O351 0.051       .   A
C336       N352 0.040       .   A
C337       C342 0.054       .   A
C337       H346 0.038       .   A
C337       H347 0.038       .   A
C338       H339 0.038       .   A
C338       H340 0.038       .   A
C338       H341 0.038       .   A
C342       H343 0.038       .   A
C342       H344 0.038       .   A
C342       H345 0.038       .   A
C305       C306 0.048       .   A
C305       C310 0.048       .   A
C306       C307 0.048       .   A
C306       C312 0.039       .   A
C307       C308 0.047       .   A
C307       O327 0.048       .   A
C308       C309 0.048       .   A
C309       C310 0.048       .   A
C309       C314 0.054       .   A
C310       C313 0.055       .   A
C311       H324 0.038       .   A
C311       H325 0.038       .   A
C311       H326 0.038       .   A
C311       O327 0.051       .   A
C312       N328 0.040       .   A
C313       C318 0.054       .   A
C313       H322 0.038       .   A
C313       H323 0.038       .   A
C314       H315 0.038       .   A
C314       H316 0.038       .   A
C314       H317 0.038       .   A
C318       H319 0.038       .   A
C318       H320 0.038       .   A
C318       H321 0.038       .   A
C281       C282 0.048       .   A
C281       C286 0.048       .   A
C282       C283 0.048       .   A
C282       C288 0.039       .   A
C283       C284 0.047       .   A
C283       O303 0.048       .   A
C284       C285 0.048       .   A
C285       C286 0.048       .   A
C285       C290 0.054       .   A
C286       C289 0.055       .   A
C287       H300 0.038       .   A
C287       H301 0.038       .   A
C287       H302 0.038       .   A
C287       O303 0.051       .   A
C288       N304 0.040       .   A
C289       C294 0.054       .   A
C289       H298 0.038       .   A
C289       H299 0.038       .   A
C290       H291 0.038       .   A
C290       H292 0.038       .   A
C290       H293 0.038       .   A
C294       H295 0.038       .   A
C294       H296 0.038       .   A
C294       H297 0.038       .   A
C257       C258 0.048       .   A
C257       C262 0.048       .   A
C258       C259 0.048       .   A
C258       C264 0.039       .   A
C259       C260 0.047       .   A
C259       O279 0.048       .   A
C260       C261 0.048       .   A
C261       C262 0.048       .   A
C261       C266 0.054       .   A
C262       C265 0.055       .   A
C263       H276 0.038       .   A
C263       H277 0.038       .   A
C263       H278 0.038       .   A
C263       O279 0.051       .   A
C264       N280 0.040       .   A
C265       C270 0.054       .   A
C265       H274 0.038       .   A
C265       H275 0.038       .   A
C266       H267 0.038       .   A
C266       H268 0.038       .   A
C266       H269 0.038       .   A
C270       H271 0.038       .   A
C270       H272 0.038       .   A
C270       H273 0.038       .   A
C233       C234 0.048       .   A
C233       C238 0.048       .   A
C234       C235 0.048       .   A
C234       C240 0.039       .   A
C235       C236 0.047       .   A
C235       O255 0.048       .   A
C236       C237 0.048       .   A
C237       C238 0.048       .   A
C237       C242 0.054       .   A
C238       C241 0.055       .   A
C239       H252 0.038       .   A
C239       H253 0.038       .   A
C239       H254 0.038       .   A
C239       O255 0.051       .   A
C240       N256 0.040       .   A
C241       C246 0.054       .   A
C241       H250 0.038       .   A
C241       H251 0.038       .   A
C242       H243 0.038       .   A
C242       H244 0.038       .   A
C242       H245 0.038       .   A
C246       H247 0.038       .   A
C246       H248 0.038       .   A
C246       H249 0.038       .   A
C209       C210 0.048       .   A
C209       C214 0.048       .   A
C210       C211 0.048       .   A
C210       C216 0.039       .   A
C211       C212 0.047       .   A
C211       O231 0.048       .   A
C212       C213 0.048       .   A
C213       C214 0.048       .   A
C213       C218 0.054       .   A
C214       C217 0.055       .   A
C215       H228 0.038       .   A
C215       H229 0.038       .   A
C215       H230 0.038       .   A
C215       O231 0.051       .   A
C216       N232 0.040       .   A
C217       C222 0.054       .   A
C217       H226 0.038       .   A
C217       H227 0.038       .   A
C218       H219 0.038       .   A
C218       H220 0.038       .   A
C218       H221 0.038       .   A
C222       H223 0.038       .   A
C222       H224 0.038       .   A
C222       H225 0.038       .   A
C185       C186 0.048       .   A
C185       C190 0.048       .   A
C186       C187 0.048       .   A
C186       C192 0.039       .   A
C187       C188 0.047       .   A
C187       O207 0.048       .   A
C188       C189 0.048       .   A
C189       C190 0.048       .   A
C189       C194 0.054       .   A
C190       C193 0.055       .   A
C191       H204 0.038       .   A
C191       H205 0.038       .   A
C191       H206 0.038       .   A
C191       O207 0.051       .   A
C192       N208 0.040       .   A
C193       C198 0.054       .   A
C193       H202 0.038       .   A
C193       H203 0.038       .   A
C194       H195 0.038       .   A
C194       H196 0.038       .   A
C194       H197 0.038       .   A
C198       H199 0.038       .   A
C198       H200 0.038       .   A
C198       H201 0.038       .   A
