data_pcu_v1-6c_Zn_1_Ch_1-74_fer_tobacco
_audit_creation_date              2021-02-03
_audit_creation_method            'tobacco_3.0'
_symmetry_space_group_name_H-M    'P1'
_symmetry_Int_Tables_number       1
_symmetry_cell_setting            triclinic
loop_
_symmetry_equiv_pos_as_xyz
  x,y,z
_cell_length_a                    43.16619886284056
_cell_length_b                    43.16619886284056
_cell_length_c                    43.16619886284056
_cell_angle_alpha                 90.0
_cell_angle_beta                  90.0
_cell_angle_gamma                 90.0
loop_
_atom_site_label
_atom_site_type_symbol
_atom_site_fract_x
_atom_site_fract_y
_atom_site_fract_z
_atom_site_charge
Zn1       Zn    0.0259740267   -0.0259740267    0.0259740267          1.4972
Zn2       Zn   -0.0259740267   -0.0259740267   -0.0259740267          1.4936
Zn3       Zn   -0.0259740267    0.0259740267    0.0259740267          1.4911
Zn4       Zn    0.0259740267    0.0259740267   -0.0259740267          1.4948
O5         O    0.0000000000    0.0000000000    0.0000000000         -2.2296
O6         O    0.0190890100   -0.0694200573    0.0190890100         -1.1359
O7         O   -0.0694200573   -0.0190890100   -0.0190890100         -1.1341
O8         O   -0.0190890100    0.0190890100    0.0694200573         -1.1293
O9         O   -0.0190890100   -0.0694200573   -0.0190890100         -1.1361
O10        O    0.0190890100   -0.0190890100    0.0694200573          -1.132
O11        O   -0.0694200573    0.0190890100    0.0190890100         -1.1379
O12        O    0.0190890100    0.0694200573   -0.0190890100         -1.1318
O13        O   -0.0190890100   -0.0190890100   -0.0694200573         -1.1394
O14        O   -0.0190890100    0.0694200573    0.0190890100         -1.1333
O15        O    0.0190890100    0.0190890100   -0.0694200573         -1.1379
O16        O    0.0694200573    0.0190890100   -0.0190890100          -1.137
O17        O    0.0694200573   -0.0190890100    0.0190890100         -1.1349
C18        C    0.0000000000   -0.0830001273    0.0000000000           0.383
C19        C   -0.0830001273    0.0000000000    0.0000000000          0.3879
C20        C    0.0000000000   -0.0000000000    0.0830001273          0.3775
C21        C   -0.0000000000    0.0830001273   -0.0000000000          0.3813
C22        C   -0.0000000000    0.0000000000   -0.0830001273          0.3926
C23        C    0.0830001273   -0.0000000000   -0.0000000000          0.3831
Zn24      Zn    0.9740259733   -0.0259740267    0.4740259733          1.4972
Zn25      Zn    1.0259740267   -0.0259740267    0.5259740267          1.4936
Zn26      Zn    1.0259740267    0.0259740267    0.4740259733          1.4911
Zn27      Zn    0.9740259733    0.0259740267    0.5259740267          1.4948
O28        O    1.0000000000    0.0000000000    0.5000000000         -2.2296
O29        O    0.9809109900   -0.0694200573    0.4809109900         -1.1359
O30        O    1.0694200573   -0.0190890100    0.5190890100         -1.1341
O31        O    1.0190890100    0.0190890100    0.4305799427         -1.1293
O32        O    1.0190890100   -0.0694200573    0.5190890100         -1.1361
O33        O    0.9809109900   -0.0190890100    0.4305799427          -1.132
O34        O    1.0694200573    0.0190890100    0.4809109900         -1.1379
O35        O    0.9809109900    0.0694200573    0.5190890100         -1.1318
O36        O    1.0190890100   -0.0190890100    0.5694200573         -1.1394
O37        O    1.0190890100    0.0694200573    0.4809109900         -1.1333
O38        O    0.9809109900    0.0190890100    0.5694200573         -1.1379
O39        O    0.9305799427    0.0190890100    0.5190890100          -1.137
O40        O    0.9305799427   -0.0190890100    0.4809109900         -1.1349
C41        C    1.0000000000   -0.0830001273    0.5000000000           0.383
C42        C    1.0830001273    0.0000000000    0.5000000000          0.3879
C43        C    1.0000000000    0.0000000000    0.4169998727          0.3775
C44        C    1.0000000000    0.0830001273    0.5000000000          0.3813
C45        C    1.0000000000    0.0000000000    0.5830001273          0.3926
C46        C    0.9169998727    0.0000000000    0.5000000000          0.3831
Zn47      Zn    1.0259740267    0.4740259733   -0.0259740267          1.4972
Zn48      Zn    0.9740259733    0.4740259733    0.0259740267          1.4936
Zn49      Zn    1.0259740267    0.5259740267    0.0259740267          1.4911
Zn50      Zn    0.9740259733    0.5259740267   -0.0259740267          1.4948
O51        O    1.0000000000    0.5000000000    0.0000000000         -2.2296
O52        O    1.0190890100    0.4305799427   -0.0190890100         -1.1359
O53        O    0.9809109900    0.4809109900    0.0694200573         -1.1341
O54        O    1.0694200573    0.5190890100    0.0190890100         -1.1293
O55        O    0.9809109900    0.4305799427    0.0190890100         -1.1361
O56        O    1.0694200573    0.4809109900   -0.0190890100          -1.132
O57        O    1.0190890100    0.5190890100    0.0694200573         -1.1379
O58        O    0.9809109900    0.5694200573   -0.0190890100         -1.1318
O59        O    0.9305799427    0.4809109900    0.0190890100         -1.1394
O60        O    1.0190890100    0.5694200573    0.0190890100         -1.1333
O61        O    0.9305799427    0.5190890100   -0.0190890100         -1.1379
O62        O    0.9809109900    0.5190890100   -0.0694200573          -1.137
O63        O    1.0190890100    0.4809109900   -0.0694200573         -1.1349
C64        C    1.0000000000    0.4169998727    0.0000000000           0.383
C65        C    1.0000000000    0.5000000000    0.0830001273          0.3879
C66        C    1.0830001273    0.5000000000    0.0000000000          0.3775
C67        C    1.0000000000    0.5830001273    0.0000000000          0.3813
C68        C    0.9169998727    0.5000000000    0.0000000000          0.3926
C69        C    1.0000000000    0.5000000000   -0.0830001273          0.3831
Zn70      Zn    0.9740259733    0.4740259733    0.5259740267          1.4972
Zn71      Zn    1.0259740267    0.4740259733    0.4740259733          1.4936
Zn72      Zn    0.9740259733    0.5259740267    0.4740259733          1.4911
Zn73      Zn    1.0259740267    0.5259740267    0.5259740267          1.4948
O74        O    1.0000000000    0.5000000000    0.5000000000         -2.2296
O75        O    0.9809109900    0.4305799427    0.5190890100         -1.1359
O76        O    1.0190890100    0.4809109900    0.4305799427         -1.1341
O77        O    0.9305799427    0.5190890100    0.4809109900         -1.1293
O78        O    1.0190890100    0.4305799427    0.4809109900         -1.1361
O79        O    0.9305799427    0.4809109900    0.5190890100          -1.132
O80        O    0.9809109900    0.5190890100    0.4305799427         -1.1379
O81        O    1.0190890100    0.5694200573    0.5190890100         -1.1318
O82        O    1.0694200573    0.4809109900    0.4809109900         -1.1394
O83        O    0.9809109900    0.5694200573    0.4809109900         -1.1333
O84        O    1.0694200573    0.5190890100    0.5190890100         -1.1379
O85        O    1.0190890100    0.5190890100    0.5694200573          -1.137
O86        O    0.9809109900    0.4809109900    0.5694200573         -1.1349
C87        C    1.0000000000    0.4169998727    0.5000000000           0.383
C88        C    1.0000000000    0.5000000000    0.4169998727          0.3879
C89        C    0.9169998727    0.5000000000    0.5000000000          0.3775
C90        C    1.0000000000    0.5830001273    0.5000000000          0.3813
C91        C    1.0830001273    0.5000000000    0.5000000000          0.3926
C92        C    1.0000000000    0.5000000000    0.5830001273          0.3831
Zn93      Zn    0.4740259733    0.9740259733   -0.0259740267          1.4972
Zn94      Zn    0.4740259733    1.0259740267    0.0259740267          1.4936
Zn95      Zn    0.5259740267    0.9740259733    0.0259740267          1.4911
Zn96      Zn    0.5259740267    1.0259740267   -0.0259740267          1.4948
O97        O    0.5000000000    1.0000000000    0.0000000000         -2.2296
O98        O    0.4305799427    0.9809109900   -0.0190890100         -1.1359
O99        O    0.4809109900    1.0190890100    0.0694200573         -1.1341
O100       O    0.5190890100    0.9305799427    0.0190890100         -1.1293
O101       O    0.4305799427    1.0190890100    0.0190890100         -1.1361
O102       O    0.4809109900    0.9305799427   -0.0190890100          -1.132
O103       O    0.5190890100    0.9809109900    0.0694200573         -1.1379
O104       O    0.5694200573    1.0190890100   -0.0190890100         -1.1318
O105       O    0.4809109900    1.0694200573    0.0190890100         -1.1394
O106       O    0.5694200573    0.9809109900    0.0190890100         -1.1333
O107       O    0.5190890100    1.0694200573   -0.0190890100         -1.1379
O108       O    0.5190890100    1.0190890100   -0.0694200573          -1.137
O109       O    0.4809109900    0.9809109900   -0.0694200573         -1.1349
C110       C    0.4169998727    1.0000000000    0.0000000000           0.383
C111       C    0.5000000000    1.0000000000    0.0830001273          0.3879
C112       C    0.5000000000    0.9169998727    0.0000000000          0.3775
C113       C    0.5830001273    1.0000000000    0.0000000000          0.3813
C114       C    0.5000000000    1.0830001273    0.0000000000          0.3926
C115       C    0.5000000000    1.0000000000   -0.0830001273          0.3831
Zn116     Zn    0.4740259733    0.9740259733    0.5259740267          1.4972
Zn117     Zn    0.4740259733    1.0259740267    0.4740259733          1.4936
Zn118     Zn    0.5259740267    1.0259740267    0.5259740267          1.4911
Zn119     Zn    0.5259740267    0.9740259733    0.4740259733          1.4948
O120       O    0.5000000000    1.0000000000    0.5000000000         -2.2296
O121       O    0.4305799427    0.9809109900    0.5190890100         -1.1359
O122       O    0.4809109900    1.0694200573    0.4809109900         -1.1341
O123       O    0.5190890100    1.0190890100    0.5694200573         -1.1293
O124       O    0.4305799427    1.0190890100    0.4809109900         -1.1361
O125       O    0.4809109900    0.9809109900    0.5694200573          -1.132
O126       O    0.5190890100    1.0694200573    0.5190890100         -1.1379
O127       O    0.5694200573    0.9809109900    0.4809109900         -1.1318
O128       O    0.4809109900    1.0190890100    0.4305799427         -1.1394
O129       O    0.5694200573    1.0190890100    0.5190890100         -1.1333
O130       O    0.5190890100    0.9809109900    0.4305799427         -1.1379
O131       O    0.5190890100    0.9305799427    0.4809109900          -1.137
O132       O    0.4809109900    0.9305799427    0.5190890100         -1.1349
C133       C    0.4169998727    1.0000000000    0.5000000000           0.383
C134       C    0.5000000000    1.0830001273    0.5000000000          0.3879
C135       C    0.5000000000    1.0000000000    0.5830001273          0.3775
C136       C    0.5830001273    1.0000000000    0.5000000000          0.3813
C137       C    0.5000000000    1.0000000000    0.4169998727          0.3926
C138       C    0.5000000000    0.9169998727    0.5000000000          0.3831
Zn139     Zn    0.4740259733    0.5259740267   -0.0259740267          1.4972
Zn140     Zn    0.4740259733    0.4740259733    0.0259740267          1.4936
Zn141     Zn    0.5259740267    0.4740259733   -0.0259740267          1.4911
Zn142     Zn    0.5259740267    0.5259740267    0.0259740267          1.4948
O143       O    0.5000000000    0.5000000000    0.0000000000         -2.2296
O144       O    0.4305799427    0.5190890100   -0.0190890100         -1.1359
O145       O    0.4809109900    0.4305799427    0.0190890100         -1.1341
O146       O    0.5190890100    0.4809109900   -0.0694200573         -1.1293
O147       O    0.4305799427    0.4809109900    0.0190890100         -1.1361
O148       O    0.4809109900    0.5190890100   -0.0694200573          -1.132
O149       O    0.5190890100    0.4305799427   -0.0190890100         -1.1379
O150       O    0.5694200573    0.5190890100    0.0190890100         -1.1318
O151       O    0.4809109900    0.4809109900    0.0694200573         -1.1394
O152       O    0.5694200573    0.4809109900   -0.0190890100         -1.1333
O153       O    0.5190890100    0.5190890100    0.0694200573         -1.1379
O154       O    0.5190890100    0.5694200573    0.0190890100          -1.137
O155       O    0.4809109900    0.5694200573   -0.0190890100         -1.1349
C156       C    0.4169998727    0.5000000000    0.0000000000           0.383
C157       C    0.5000000000    0.4169998727    0.0000000000          0.3879
C158       C    0.5000000000    0.5000000000   -0.0830001273          0.3775
C159       C    0.5830001273    0.5000000000    0.0000000000          0.3813
C160       C    0.5000000000    0.5000000000    0.0830001273          0.3926
C161       C    0.5000000000    0.5830001273    0.0000000000          0.3831
Zn162     Zn    0.4740259733    0.4740259733    0.5259740267          1.4972
Zn163     Zn    0.4740259733    0.5259740267    0.4740259733          1.4936
Zn164     Zn    0.5259740267    0.5259740267    0.5259740267          1.4911
Zn165     Zn    0.5259740267    0.4740259733    0.4740259733          1.4948
O166       O    0.5000000000    0.5000000000    0.5000000000         -2.2296
O167       O    0.4305799427    0.4809109900    0.5190890100         -1.1359
O168       O    0.4809109900    0.5694200573    0.4809109900         -1.1341
O169       O    0.5190890100    0.5190890100    0.5694200573         -1.1293
O170       O    0.4305799427    0.5190890100    0.4809109900         -1.1361
O171       O    0.4809109900    0.4809109900    0.5694200573          -1.132
O172       O    0.5190890100    0.5694200573    0.5190890100         -1.1379
O173       O    0.5694200573    0.4809109900    0.4809109900         -1.1318
O174       O    0.4809109900    0.5190890100    0.4305799427         -1.1394
O175       O    0.5694200573    0.5190890100    0.5190890100         -1.1333
O176       O    0.5190890100    0.4809109900    0.4305799427         -1.1379
O177       O    0.5190890100    0.4305799427    0.4809109900          -1.137
O178       O    0.4809109900    0.4305799427    0.5190890100         -1.1349
C179       C    0.4169998727    0.5000000000    0.5000000000           0.383
C180       C    0.5000000000    0.5830001273    0.5000000000          0.3879
C181       C    0.5000000000    0.5000000000    0.5830001273          0.3775
C182       C    0.5830001273    0.5000000000    0.5000000000          0.3813
C183       C    0.5000000000    0.5000000000    0.4169998727          0.3926
C184       C    0.5000000000    0.4169998727    0.5000000000          0.3831
C1036      C    0.5000000000    0.5000000000   -0.1186761896          0.6078
C1037      C    0.4765566040    0.5166075120   -0.1306330870          0.6082
C1038      C    0.4747332857    0.5228185111   -0.1611378016         -0.3892
C1039      C    0.4972996478    0.5120649599   -0.1799834596         -0.3869
C1040      C    0.5203399756    0.4953846842   -0.1678918974         -0.3875
C1041      C    0.5216678867    0.4892514604   -0.1379619874         -0.3903
C1042      C    0.4981190228    0.5192256379   -0.2146836651         -0.3824
C1043      C    0.4478892985    0.5418899206   -0.1747043470         -0.3887
H1044      H    0.4588523920    0.5254384171   -0.1150898713          0.6066
H1045      H    0.5410793971    0.4755228427   -0.1296823976         -0.3907
H1046      H    0.5390332299    0.4863808089   -0.1820051841         -0.3855
C1047      C    0.5122320414    0.4927213899   -0.2347236168          0.6038
N1048      N    0.5113336050    0.4989957186   -0.2685197163          0.6067
N1049      N    0.4917761963    0.5117263088   -0.2579914631           0.607
N1050      N    0.4840128197    0.5291764280   -0.2335320120         -0.3826
N1051      N    0.5299691121    0.5211050616   -0.2798922511         -0.3676
H1052      H    0.5367405693    0.4899505877   -0.2288407737         -0.3858
H1053      H    0.5010453024    0.4703881927   -0.2290477258          0.5814
H1054      H    0.5110498189    0.5409132489   -0.2177735063         -0.3595
N1055      N    0.5382384106    0.5175742467   -0.3081473456         -0.3672
C1056      C    0.5156229838    0.5035299790   -0.3302450086         -0.3901
O1057      O    0.5267757813    0.5036238119   -0.3616515533         -0.3857
C1058      C    0.4753652406    0.5206459285   -0.3657184547          0.6013
C1059      C    0.4851807263    0.5222370054   -0.3318371830         -0.3912
H1060      H    0.4674530212    0.5119569388   -0.3169917846          0.5927
H1061      H    0.4522220025    0.5106771417   -0.3682550081           0.582
H1062      H    0.4753858265    0.5439763784   -0.3755635361         -0.3813
H1063      H    0.4886574238    0.5463576748   -0.3249147363         -0.3709
H1064      H    0.4927390727    0.4757577555   -0.3806885426          0.5753
C1065      C    0.5000000000    0.5000000000   -0.3813238104          0.5973
H1066      H    0.5110724831    0.4792360041   -0.3239991777          0.5894
C1067      C    0.4211993551    0.5511486637   -0.1528285305          0.6058
H1068      H    0.4031991595    0.5630661199   -0.1660510080          0.6053
H1069      H    0.4292585963    0.5668873191   -0.1347466835         -0.3775
H1070      H    0.4107525107    0.5307314480   -0.1421573160          0.5855
H1071      H    0.4572193264    0.5631525139   -0.1848214499         -0.3683
H1072      H    0.4373346362    0.5288093349   -0.1935981372          0.5953
C999       C    0.5000000000    0.5000000000    0.3813238104          0.6078
C1000      C    0.5287124404    0.4990009830    0.3693669130          0.6082
C1001      C    0.5336479254    0.4948126674    0.3388621984         -0.3892
C1002      C    0.5088841187    0.4914018842    0.3200165404         -0.3869
C1003      C    0.4804685115    0.4926831220    0.3321081026         -0.3875
C1004      C    0.4759897148    0.4970785926    0.3620380126         -0.3903
C1005      C    0.5121330534    0.4849682921    0.2853163349         -0.3824
C1006      C    0.5665554124    0.4936228729    0.3252956530         -0.3887
H1007      H    0.5483572462    0.5013473881    0.3849101287          0.6066
H1008      H    0.4522278041    0.4978868514    0.3703176024         -0.3907
H1009      H    0.4599022410    0.4899379364    0.3179948159         -0.3855
C1010      C    0.4857804834    0.4993625447    0.2652763832          0.6038
N1011      N    0.4899779237    0.4946132412    0.2314802837          0.6067
N1012      N    0.5133134966    0.4947190838    0.2420085369           0.607
N1013      N    0.5293865449    0.4844024083    0.2664679880         -0.3826
N1014      N    0.4865514675    0.4659014915    0.2201077489         -0.3676
H1015      H    0.4637789964    0.4882144572    0.2711592263         -0.3858
H1016      H    0.4828597586    0.5241694831    0.2709522742          0.5814
H1017      H    0.5132417969    0.4597427367    0.2822264937         -0.3595
N1018      N    0.4777020221    0.4643092397    0.1918526544         -0.3672
C1019      C    0.4888845327    0.4884680981    0.1697549914         -0.3901
O1020      O    0.4796167716    0.4822630759    0.1383484467         -0.3857
C1021      C    0.5319263879    0.4962809285    0.1342815453          0.6013
C1022      C    0.5245985756    0.4895594367    0.1681628170         -0.3912
H1023      H    0.5337646983    0.5078879252    0.1830082154          0.5927
H1024      H    0.5457887408    0.5173242493    0.1317449919           0.582
H1025      H    0.5447254046    0.4767746350    0.1244364639         -0.3813
H1026      H    0.5349437511    0.4674942727    0.1750852637         -0.3709
H1027      H    0.4927501514    0.5242455599    0.1193114574          0.5753
C1028      C    0.5000000000    0.5000000000    0.1186761896          0.5973
H1029      H    0.4793414272    0.5112679536    0.1760008223          0.5894
C1030      C    0.5939437448    0.5005479465    0.3471714695          0.6058
H1031      H    0.6155314239    0.5004778154    0.3339489920          0.6053
H1032      H    0.5958552064    0.4829694667    0.3652533165         -0.3775
H1033      H    0.5914572767    0.5233474363    0.3578426840          0.5855
H1034      H    0.5704394902    0.4707304891    0.3151785501         -0.3683
H1035      H    0.5681893003    0.5103510835    0.3064018628          0.5953
C962       C    0.5000000000    0.8813238104    0.5000000000          0.6078
C963       C    0.5152241133    0.8693669130    0.4756355044          0.6082
C964       C    0.5213192867    0.8388621984    0.4734560870         -0.3892
C965       C    0.5118886248    0.8200165404    0.4966065121         -0.3869
C966       C    0.4965685622    0.8321081026    0.5205728214         -0.3875
C967       C    0.4905223871    0.8620380126    0.5222531632         -0.3903
C968       C    0.5190847013    0.7853163349    0.4970104511         -0.3824
C969       C    0.5388065362    0.8252956530    0.4455542159         -0.3887
H970       H    0.5230164992    0.8849101287    0.4574502705          0.6066
H971       H    0.4779392079    0.8703176024    0.5424260480         -0.3907
H972       H    0.4886606867    0.8179948159    0.5397554446         -0.3855
C973       C    0.4934408844    0.7652763832    0.5126324584          0.6038
N974       N    0.4996527627    0.7314802837    0.5113727134          0.6067
N975       N    0.5112311477    0.7420085369    0.4911118851           0.607
N976       N    0.5282031526    0.7664679880    0.4823524486         -0.3826
N977       N    0.5228027060    0.7201077489    0.5286985698         -0.3676
H978       H    0.4920919196    0.7711592263    0.5372601984         -0.3858
H979       H    0.4704981853    0.7709522742    0.5027558508          0.5814
H980       H    0.5414837444    0.7822264937    0.5086655285         -0.3595
N981       N    0.5197559697    0.6918526544    0.5371582003         -0.3672
C982       C    0.5044274687    0.6697549914    0.5153927222         -0.3901
O983       O    0.5051660530    0.6383484467    0.5265214323         -0.3857
C984       C    0.5191868821    0.6342815453    0.4742126137          0.6013
C985       C    0.5213428754    0.6681628170    0.4839196719         -0.3912
H986       H    0.5100549087    0.6830082154    0.4668160727          0.5927
H987       H    0.5078965221    0.6317449919    0.4516845435           0.582
H988       H    0.5424794846    0.6244364639    0.4728840861         -0.3813
H989       H    0.5456242242    0.6750852637    0.4859957787         -0.3709
H990       H    0.4753784572    0.6193114574    0.4941530255          0.5753
C991       C    0.5000000000    0.6186761896    0.5000000000          0.5973
H992       H    0.4799110118    0.6760008223    0.5122546304          0.5894
C993       C    0.5465064460    0.8471714695    0.4183735465          0.6058
H994       H    0.5573631031    0.8339489920    0.3997143450          0.6053
H995       H    0.5626847907    0.8652533165    0.4255092175         -0.3775
H996       H    0.5255193065    0.8578426840    0.4091248041          0.5855
H997       H    0.5605730590    0.8151785501    0.4536391267         -0.3683
H998       H    0.5251375162    0.8064018628    0.4357735967          0.5953
C925       C    0.5000000000    1.1186761896    0.5000000000          0.6078
C926       C    0.5255359867    1.1306330870    0.4868350597          0.6082
C927       C    0.5282101810    1.1611378016    0.4809401734         -0.3892
C928       C    0.5043614647    1.1799834596    0.4884313879         -0.3869
C929       C    0.4792144051    1.1678918974    0.5017247582         -0.3875
C930       C    0.4770416266    1.1379619874    0.5076119321         -0.3903
C931       C    0.5045517901    1.2146836651    0.4812264965         -0.3824
C932       C    0.5574579783    1.1747043470    0.4658112388         -0.3887
H933       H    0.5443014140    1.1150898713    0.4805674647          0.6066
H934       H    0.4559005885    1.1296823976    0.5184902678         -0.3907
H935       H    0.4594454642    1.1820051841    0.5080252744         -0.3855
C936       C    0.4868700795    1.2347236168    0.5054960158          0.6038
N937       N    0.4886373436    1.2685197163    0.4994090488          0.6067
N938       N    0.5097832403    1.2579914631    0.4895393368           0.607
N939       N    0.5199112340    1.2335320120    0.4733467329         -0.3826
N940       N    0.4732777378    1.2798922511    0.4749103206         -0.3676
H941       H    0.4622149291    1.2288407737    0.5048112929         -0.3858
H942       H    0.4948228382    1.2290477258    0.5291744543          0.5814
H943       H    0.4947818160    1.2177735063    0.4579433360         -0.3595
N944       N    0.4645958460    1.3081473456    0.4772497018         -0.3672
C945       C    0.4850243947    1.3302450086    0.4943193643         -0.3901
O946       O    0.4739943738    1.3616515533    0.4926663868         -0.3857
C947       C    0.5272805357    1.3657184547    0.4830029971          0.6013
C948       C    0.5177841148    1.3318371830    0.4800545609         -0.3912
H949       H    0.5338995378    1.3169917846    0.4927133302          0.5927
H950       H    0.5488017898    1.3682550081    0.4961110786           0.582
H951       H    0.5305236446    1.3755635361    0.4598990459         -0.3813
H952       H    0.5177156285    1.3249147363    0.4556847142         -0.3709
H953       H    0.5037985046    1.3806885426    0.5250195692          0.5753
C954       C    0.5000000000    1.3813238104    0.5000000000          0.5973
H955       H    0.4861318847    1.3239991777    0.5190110176          0.5894
C956       C    0.5851806383    1.1528285305    0.4603769475          0.6058
H957       H    0.6046708898    1.1660510080    0.4510945501          0.6053
H958       H    0.5794021760    1.1347466835    0.4436656934         -0.3775
H959       H    0.5926687868    1.1421573160    0.4820547447          0.5855
H960       H    0.5511939185    1.1848214499    0.4434525973         -0.3683
H961       H    0.5660791416    1.1935981372    0.4802396193          0.5953
C888       C    0.5000000000    0.6186761896    0.0000000000          0.6078
C889       C    0.5175231294    0.6306330870   -0.0227671299          0.6082
C890       C    0.5174393821    0.6611378016   -0.0292396863         -0.3892
C891       C    0.4990330539    0.6799834596   -0.0123255903         -0.3869
C892       C    0.4819165683    0.6678918974    0.0103925572         -0.3875
C893       C    0.4824509473    0.6379619874    0.0166450944         -0.3903
C894       C    0.4961441912    0.7146836651   -0.0189287074         -0.3824
C895       C    0.5374881954    0.6747043470   -0.0553617727         -0.3887
H896       H    0.5318476740    0.6150898713   -0.0364137938          0.6066
H897       H    0.4679348466    0.6296823976    0.0354749776         -0.3907
H898       H    0.4666975769    0.6820051841    0.0244953877         -0.3855
C899       C    0.4904491956    0.7347236168    0.0105538209          0.6038
N900       N    0.4894628369    0.7685197163    0.0042927120          0.6067
N901       N    0.5044118716    0.7579914631   -0.0136261754           0.607
N902       N    0.5067004922    0.7335320120   -0.0325876862         -0.3826
N903       N    0.4651496802    0.7798922511   -0.0113589841         -0.3676
H904       H    0.4678391146    0.7288407737    0.0204092520         -0.3858
H905       H    0.5077087599    0.7290477258    0.0286099075          0.5814
H906       H    0.4774075287    0.7177735063   -0.0358548835         -0.3595
N907       N    0.4582843043    0.8081473456   -0.0055525597         -0.3672
C908       C    0.4840297386    0.8302450086    0.0012202974         -0.3901
O909       O    0.4733424698    0.8616515533    0.0044102788         -0.3857
C910       C    0.5174742532    0.8657184547   -0.0269773278          0.6013
C911       C    0.5076248773    0.8318371830   -0.0256116483         -0.3912
H912       H    0.5275917750    0.8169917846   -0.0209992421          0.5927
H913       H    0.5425256987    0.8682550081   -0.0242549655           0.582
H914       H    0.5105938708    0.8755635361   -0.0492701664         -0.3813
H915       H    0.4972088184    0.8249147363   -0.0476434398         -0.3709
H916       H    0.5140687199    0.8806885426    0.0210351754          0.5753
C917       C    0.5000000000    0.8813238104    0.0000000000          0.5973
H918       H    0.4955230857    0.8239991777    0.0231019620          0.5894
C919       C    0.5602753535    0.6528285305   -0.0720597613          0.6058
H920       H    0.5739751430    0.6660510080   -0.0887435430          0.6053
H921       H    0.5479442391    0.6347466835   -0.0847325769         -0.3775
H922       H    0.5762643116    0.6421573160   -0.0556173625          0.5855
H923       H    0.5223180763    0.6848214499   -0.0729405890         -0.3683
H924       H    0.5514227461    0.6935981372   -0.0459633199          0.5953
C851       C    0.5000000000    1.3813238104    0.0000000000          0.6078
C852       C    0.4756767257    1.3693669130    0.0152898854          0.6082
C853       C    0.4692411443    1.3388621984    0.0145939747         -0.3892
C854       C    0.4878212364    1.3200165404   -0.0021290556         -0.3869
C855       C    0.5120572648    1.3321081026   -0.0170187577         -0.3875
C856       C    0.5182311684    1.3620380126   -0.0158950596         -0.3903
C857       C    0.4815211461    1.2853163349   -0.0056298478         -0.3824
C858       C    0.4413389493    1.3252956530    0.0320807075         -0.3887
H859       H    0.4607356864    1.3849101287    0.0282586693          0.6066
H860       H    0.5383502924    1.3703176024   -0.0285640188         -0.3907
H861       H    0.5275370706    1.3179948159   -0.0308348041         -0.3855
C862       C    0.5114103079    1.2652763832   -0.0085091642          0.6038
N863       N    0.5052706448    1.2314802837   -0.0100836247          0.6067
N864       N    0.4860174567    1.2420085369    0.0031025389           0.607
N865       N    0.4669244601    1.2664679880    0.0035864394         -0.3826
N866       N    0.4919901039    1.2201077489   -0.0357688814         -0.3676
H867       H    0.5233612429    1.2711592263   -0.0300850868         -0.3858
H868       H    0.5277519745    1.2709522742    0.0103817001          0.5814
H869       H    0.4664441060    1.2822264937   -0.0258842502         -0.3595
N870       N    0.4984201828    1.1918526544   -0.0420539459         -0.3672
C871       C    0.5027261882    1.1697549914   -0.0157831009         -0.3901
O872       O    0.5069132571    1.1383484467   -0.0261205160         -0.3857
C873       C    0.4714900490    1.1342815453    0.0148427907          0.6013
C874       C    0.4737817084    1.1681628170    0.0051668626         -0.3912
H875       H    0.4764838190    1.1830082154    0.0254806485          0.5927
H876       H    0.4718294152    1.1317449919    0.0400394374           0.582
H877       H    0.4499483972    1.1244364639    0.0058835747         -0.3813
H878       H    0.4528345357    1.1750852637   -0.0072874569         -0.3709
H879       H    0.5196093549    1.1193114574    0.0159962708          0.5753
C880       C    0.5000000000    1.1186761896    0.0000000000          0.5973
H881       H    0.5234219572    1.1760008223   -0.0022705356          0.5894
C882       C    0.4225594088    1.3471714695    0.0531853577          0.6058
H883       H    0.4046540071    1.3339489920    0.0652447687          0.6053
H884       H    0.4111104419    1.3652533165    0.0397102772         -0.3775
H885       H    0.4374148756    1.3578426840    0.0706586049          0.5855
H886       H    0.4252746734    1.3151785501    0.0153150779         -0.3683
H887       H    0.4493765056    1.3064018628    0.0468421542          0.5953
C814       C    0.5000000000    1.0000000000   -0.1186761896          0.6078
C815       C    0.5234433960    0.9833924880   -0.1306330870          0.6082
C816       C    0.5252667143    0.9771814889   -0.1611378016         -0.3892
C817       C    0.5027003522    0.9879350401   -0.1799834596         -0.3869
C818       C    0.4796600244    1.0046153158   -0.1678918974         -0.3875
C819       C    0.4783321133    1.0107485396   -0.1379619874         -0.3903
C820       C    0.5018809772    0.9807743621   -0.2146836651         -0.3824
C821       C    0.5521107015    0.9581100794   -0.1747043470         -0.3887
H822       H    0.5411476080    0.9745615829   -0.1150898713          0.6066
H823       H    0.4589206029    1.0244771573   -0.1296823976         -0.3907
H824       H    0.4609667701    1.0136191911   -0.1820051841         -0.3855
C825       C    0.4877679586    1.0072786101   -0.2347236168          0.6038
N826       N    0.4886663950    1.0010042814   -0.2685197163          0.6067
N827       N    0.5082238037    0.9882736912   -0.2579914631           0.607
N828       N    0.5159871803    0.9708235720   -0.2335320120         -0.3826
N829       N    0.4700308879    0.9788949384   -0.2798922511         -0.3676
H830       H    0.4632594307    1.0100494123   -0.2288407737         -0.3858
H831       H    0.4989546976    1.0296118073   -0.2290477258          0.5814
H832       H    0.4889501811    0.9590867511   -0.2177735063         -0.3595
N833       N    0.4617615894    0.9824257533   -0.3081473456         -0.3672
C834       C    0.4843770162    0.9964700210   -0.3302450086         -0.3901
O835       O    0.4732242187    0.9963761881   -0.3616515533         -0.3857
C836       C    0.5246347594    0.9793540715   -0.3657184547          0.6013
C837       C    0.5148192737    0.9777629946   -0.3318371830         -0.3912
H838       H    0.5325469788    0.9880430612   -0.3169917846          0.5927
H839       H    0.5477779975    0.9893228583   -0.3682550081           0.582
H840       H    0.5246141735    0.9560236216   -0.3755635361         -0.3813
H841       H    0.5113425762    0.9536423252   -0.3249147363         -0.3709
H842       H    0.5072609273    1.0242422445   -0.3806885426          0.5753
C843       C    0.5000000000    1.0000000000   -0.3813238104          0.5973
H844       H    0.4889275169    1.0207639959   -0.3239991777          0.5894
C845       C    0.5788006449    0.9488513363   -0.1528285305          0.6058
H846       H    0.5968008405    0.9369338801   -0.1660510080          0.6053
H847       H    0.5707414037    0.9331126809   -0.1347466835         -0.3775
H848       H    0.5892474893    0.9692685520   -0.1421573160          0.5855
H849       H    0.5427806736    0.9368474861   -0.1848214499         -0.3683
H850       H    0.5626653638    0.9711906651   -0.1935981372          0.5953
C777       C    0.5000000000    1.0000000000    0.3813238104          0.6078
C778       C    0.5287124404    0.9990009830    0.3693669130          0.6082
C779       C    0.5336479254    0.9948126674    0.3388621984         -0.3892
C780       C    0.5088841187    0.9914018842    0.3200165404         -0.3869
C781       C    0.4804685115    0.9926831220    0.3321081026         -0.3875
C782       C    0.4759897148    0.9970785926    0.3620380126         -0.3903
C783       C    0.5121330534    0.9849682921    0.2853163349         -0.3824
C784       C    0.5665554124    0.9936228729    0.3252956530         -0.3887
H785       H    0.5483572462    1.0013473881    0.3849101287          0.6066
H786       H    0.4522278041    0.9978868514    0.3703176024         -0.3907
H787       H    0.4599022410    0.9899379364    0.3179948159         -0.3855
C788       C    0.4857804834    0.9993625447    0.2652763832          0.6038
N789       N    0.4899779237    0.9946132412    0.2314802837          0.6067
N790       N    0.5133134966    0.9947190838    0.2420085369           0.607
N791       N    0.5293865449    0.9844024083    0.2664679880         -0.3826
N792       N    0.4865514675    0.9659014915    0.2201077489         -0.3676
H793       H    0.4637789964    0.9882144572    0.2711592263         -0.3858
H794       H    0.4828597586    1.0241694831    0.2709522742          0.5814
H795       H    0.5132417969    0.9597427367    0.2822264937         -0.3595
N796       N    0.4777020221    0.9643092397    0.1918526544         -0.3672
C797       C    0.4888845327    0.9884680981    0.1697549914         -0.3901
O798       O    0.4796167716    0.9822630759    0.1383484467         -0.3857
C799       C    0.5319263879    0.9962809285    0.1342815453          0.6013
C800       C    0.5245985756    0.9895594367    0.1681628170         -0.3912
H801       H    0.5337646983    1.0078879252    0.1830082154          0.5927
H802       H    0.5457887408    1.0173242493    0.1317449919           0.582
H803       H    0.5447254046    0.9767746350    0.1244364639         -0.3813
H804       H    0.5349437511    0.9674942727    0.1750852637         -0.3709
H805       H    0.4927501514    1.0242455599    0.1193114574          0.5753
C806       C    0.5000000000    1.0000000000    0.1186761896          0.5973
H807       H    0.4793414272    1.0112679536    0.1760008223          0.5894
C808       C    0.5939437448    1.0005479465    0.3471714695          0.6058
H809       H    0.6155314239    1.0004778154    0.3339489920          0.6053
H810       H    0.5958552064    0.9829694667    0.3652533165         -0.3775
H811       H    0.5914572767    1.0233474363    0.3578426840          0.5855
H812       H    0.5704394902    0.9707304891    0.3151785501         -0.3683
H813       H    0.5681893003    1.0103510835    0.3064018628          0.5953
C740       C    0.8813238104    0.5000000000    0.5000000000          0.6078
C741       C    0.8693669130    0.5210740173    0.4804734011          0.6082
C742       C    0.8388621984    0.5220706780    0.4740774909         -0.3892
C743       C    0.8200165404    0.5011017621    0.4876857286         -0.3869
C744       C    0.8321081026    0.4804368634    0.5072318347         -0.3875
C745       C    0.8620380126    0.4799212120    0.5134859442         -0.3903
C746       C    0.7853163349    0.4993543464    0.4806933597         -0.3824
C747       C    0.8252956530    0.5461944279    0.4516640352         -0.3887
H748       H    0.8849101287    0.5374734785    0.4694062568          0.6066
H749       H    0.8703176024    0.4624686251    0.5296318071         -0.3907
H750       H    0.8179948159    0.4630794155    0.5185996194         -0.3855
C751       C    0.7652763832    0.4888231520    0.5088135731          0.6038
N752       N    0.7314802837    0.4888945803    0.5024756486          0.6067
N753       N    0.7420085369    0.5066221409    0.4873002159           0.607
N754       N    0.7664679880    0.5120403696    0.4689857551         -0.3826
N755       N    0.7201077489    0.4675315545    0.4829890814         -0.3676
H756       H    0.7711592263    0.4648862958    0.5147610263         -0.3858
H757       H    0.7709522742    0.5028304211    0.5294947538          0.5814
H758       H    0.7822264937    0.4837022557    0.4608799800         -0.3595
N759       N    0.6918526544    0.4597941233    0.4875694863         -0.3672
C760       C    0.6697549914    0.4840498359    0.4985403291         -0.3901
O761       O    0.6383484467    0.4729802814    0.4999036558         -0.3857
C762       C    0.6342815453    0.5217278347    0.4763139928          0.6013
C763       C    0.6681628170    0.5117886278    0.4760182666         -0.3912
H764       H    0.6830082154    0.5307069325    0.4838953884          0.5927
H765       H    0.6317449919    0.5459746541    0.4831753283           0.582
H766       H    0.6244364639    0.5186608850    0.4531859981         -0.3813
H767       H    0.6750852637    0.5051919709    0.4525581252         -0.3709
H768       H    0.6193114574    0.5103643597    0.5230865227          0.5753
C769       C    0.6186761896    0.5000000000    0.5000000000          0.5973
H770       H    0.6760008223    0.4917337321    0.5220320726          0.5894
C771       C    0.8471714695    0.5714468119    0.4389993402          0.6058
H772       H    0.8339489920    0.5877366739    0.4248334233          0.6053
H773       H    0.8652533165    0.5614013908    0.4244478402         -0.3775
H774       H    0.8578426840    0.5844703290    0.4578775622          0.5855
H775       H    0.8151785501    0.5341677734    0.4318018380         -0.3683
H776       H    0.8064018628    0.5583668067    0.4632543680          0.5953
C703       C    1.1186761896    0.5000000000    0.5000000000          0.6078
C704       C    1.1306330870    0.5201350492    0.4795065361          0.6082
C705       C    1.1611378016    0.5265573905    0.4786975045         -0.3892
C706       C    1.1799834596    0.5123412431    0.4992591367         -0.3869
C707       C    1.1678918974    0.4921986696    0.5193430864         -0.3875
C708       C    1.1379619874    0.4859321469    0.5196754652         -0.3903
C709       C    1.2146836651    0.5192794711    0.5012104637         -0.3824
C710       C    1.1747043470    0.5496673224    0.4552401101         -0.3887
H711       H    1.1150898713    0.5316774484    0.4634380255          0.6066
H712       H    1.1296823976    0.4692823811    0.5366480011         -0.3907
H713       H    1.1820051841    0.4803277195    0.5363603738         -0.3855
C714       C    1.2347236168    0.4908630674    0.5109140947          0.6038
N715       N    1.2685197163    0.4972003671    0.5110282020          0.6067
N716       N    1.2579914631    0.5128881668    0.4937524066           0.607
N717       N    1.2335320120    0.5313533674    0.4888725458         -0.3826
N718       N    1.2798922511    0.5160533107    0.5329524282         -0.3676
H719       H    1.2288407737    0.4842175536    0.5346666195         -0.3858
H720       H    1.2290477258    0.4706007263    0.4963075087          0.5814
H721       H    1.2177735063    0.5386262406    0.5174357669         -0.3595
N722       N    1.3081473456    0.5112484010    0.5405524804         -0.3672
C723       C    1.3302450086    0.5009921997    0.5159860538         -0.3901
O724       O    1.3616515533    0.4993054619    0.5270109625         -0.3857
C725       C    1.3657184547    0.5243118121    0.4789747407          0.6013
C726       C    1.3318371830    0.5243165006    0.4889183449         -0.3912
H727       H    1.3169917846    0.5169964741    0.4697775897          0.5927
H728       H    1.3682550081    0.5181630971    0.4545374847           0.582
H729       H    1.3755635361    0.5473401314    0.4827173104         -0.3813
H730       H    1.3249147363    0.5475735133    0.4961988312         -0.3709
H731       H    1.3806885426    0.4772267231    0.4889643605          0.5753
C732       C    1.3813238104    0.5000000000    0.5000000000          0.5973
H733       H    1.3239991777    0.4777354209    0.5076178690          0.5894
C734       C    1.1528285305    0.5630657043    0.4303692283          0.6058
H735       H    1.1660510080    0.5777023406    0.4145009680          0.6053
H736       H    1.1347466835    0.5773169503    0.4408362539         -0.3775
H737       H    1.1421573160    0.5445767561    0.4167987436          0.5855
H738       H    1.1848214499    0.5691690016    0.4678429592         -0.3683
H739       H    1.1935981372    0.5384382290    0.4427337085          0.5953
C666       C    0.8813238104    0.5000000000    0.0000000000          0.6078
C667       C    0.8693669130    0.5037719513   -0.0284811280          0.6082
C668       C    0.8388621984    0.5004592476   -0.0340423324         -0.3892
C669       C    0.8200165404    0.4929926648   -0.0101858929         -0.3869
C670       C    0.8321081026    0.4895482140    0.0180492636         -0.3875
C671       C    0.8620380126    0.4931408750    0.0231944136         -0.3903
C672       C    0.7853163349    0.4871862839   -0.0144558606         -0.3824
C673       C    0.8252956530    0.5047381056   -0.0666921361         -0.3887
H674       H    0.8849101287    0.5093407356   -0.0474656652          0.6066
H675       H    0.8703176024    0.4900010202    0.0467618274         -0.3907
H676       H    0.8179948159    0.4834334897    0.0378764589         -0.3855
C677       C    0.7652763832    0.4970154240    0.0139173743          0.6038
N678       N    0.7314802837    0.4930272044    0.0089910680          0.6067
N679       N    0.7420085369    0.4969978899   -0.0140044493           0.607
N680       N    0.7664679880    0.4894868299   -0.0315646502         -0.3826
N681       N    0.7201077489    0.4641445723    0.0076131209         -0.3676
H682       H    0.7711592263    0.4823761427    0.0337677327         -0.3858
H683       H    0.7709522742    0.5209955933    0.0209078179          0.5814
H684       H    0.7822264937    0.4624930688   -0.0197287239         -0.3595
N685       N    0.6918526544    0.4611081249    0.0160764500         -0.3672
C686       C    0.6697549914    0.4867858366    0.0090512021         -0.3901
O687       O    0.6383484467    0.4791310638    0.0171628081         -0.3857
C688       C    0.6342815453    0.5016219866   -0.0321013224          0.6013
C689       C    0.6681628170    0.4937792987   -0.0259884235         -0.3912
H690       H    0.6830082154    0.5133731406   -0.0319911445          0.5927
H691       H    0.6317449919    0.5246712244   -0.0422855659           0.582
H692       H    0.6244364639    0.4845058665   -0.0479553045         -0.3813
H693       H    0.6750852637    0.4737331145   -0.0398464400         -0.3709
H694       H    0.6193114574    0.5227092878    0.0111667241          0.5753
C695       C    0.6186761896    0.5000000000    0.0000000000          0.5973
H696       H    0.6760008223    0.5076894475    0.0222399597          0.5894
C697       C    0.8471714695    0.5161052472   -0.0925545701          0.6058
H698       H    0.8339489920    0.5196127950   -0.1138555070          0.6053
H699       H    0.8652533165    0.4990864147   -0.0973520674         -0.3775
H700       H    0.8578426840    0.5381776617   -0.0863249813          0.5855
H701       H    0.8151785501    0.4828056411   -0.0743154094         -0.3683
H702       H    0.8064018628    0.5215058242   -0.0655318634          0.5953
C629       C    1.1186761896    0.5000000000    0.0000000000          0.6078
C630       C    1.1306330870    0.4755144298    0.0150286102          0.6082
C631       C    1.1611378016    0.4690866675    0.0142638416         -0.3892
C632       C    1.1799834596    0.4878447275   -0.0022593164         -0.3869
C633       C    1.1678918974    0.5122387725   -0.0168887002         -0.3875
C634       C    1.1379619874    0.5184002922   -0.0156989702         -0.3903
C635       C    1.2146836651    0.4815824769   -0.0058273552         -0.3824
C636       C    1.1747043470    0.4409988629    0.0314508582         -0.3887
H637       H    1.1150898713    0.4604354062    0.0278366957          0.6066
H638       H    1.1296823976    0.5386538940   -0.0281518130         -0.3907
H639       H    1.1820051841    0.5278656024   -0.0305382319         -0.3855
C640       C    1.2347236168    0.5115007510   -0.0083865206          0.6038
N641       N    1.2685197163    0.5053782956   -0.0100266206          0.6067
N642       N    1.2579914631    0.4859850430    0.0029526674           0.607
N643       N    1.2335320120    0.4668879601    0.0032321352         -0.3826
N644       N    1.2798922511    0.4923734958   -0.0358525835         -0.3676
H645       H    1.2288407737    0.5236819877   -0.0298332630         -0.3858
H646       H    1.2290477258    0.5276392402    0.0106782110          0.5814
H647       H    1.2177735063    0.4667231395   -0.0262420081         -0.3595
N648       N    1.3081473456    0.4988704926   -0.0420684490         -0.3672
C649       C    1.3302450086    0.5028950020   -0.0157530105         -0.3901
O650       O    1.3616515533    0.5071925007   -0.0260450074         -0.3857
C651       C    1.3657184547    0.4713327796    0.0145367195          0.6013
C652       C    1.3318371830    0.4737278958    0.0048858799         -0.3912
H653       H    1.3169917846    0.4762123771    0.0252274298          0.5927
H654       H    1.3682550081    0.4714023772    0.0397355554           0.582
H655       H    1.3755635361    0.4498882774    0.0053473973         -0.3813
H656       H    1.3249147363    0.4529152564   -0.0077919812         -0.3709
H657       H    1.3806885426    0.5194369790    0.0162052871          0.5753
C658       C    1.3813238104    0.5000000000    0.0000000000          0.5973
H659       H    1.3239991777    0.5234449227   -0.0020196557          0.5894
C660       C    1.1528285305    0.4219944574    0.0523532497          0.6058
H661       H    1.1660510080    0.4039609767    0.0642202788          0.6053
H662       H    1.1347466835    0.4106904075    0.0387563716         -0.3775
H663       H    1.1421573160    0.4366620085    0.0699845345          0.5855
H664       H    1.1848214499    0.4251149963    0.0145142092         -0.3683
H665       H    1.1935981372    0.4488779261    0.0462975070          0.5953
C592       C    1.0000000000    0.5000000000   -0.3813238104          0.6078
C593       C    0.9712875596    0.4990009830   -0.3693669130          0.6082
C594       C    0.9663520746    0.4948126674   -0.3388621984         -0.3892
C595       C    0.9911158813    0.4914018842   -0.3200165404         -0.3869
C596       C    1.0195314885    0.4926831220   -0.3321081026         -0.3875
C597       C    1.0240102852    0.4970785926   -0.3620380126         -0.3903
C598       C    0.9878669466    0.4849682921   -0.2853163349         -0.3824
C599       C    0.9334445876    0.4936228729   -0.3252956530         -0.3887
H600       H    0.9516427538    0.5013473881   -0.3849101287          0.6066
H601       H    1.0477721959    0.4978868514   -0.3703176024         -0.3907
H602       H    1.0400977590    0.4899379364   -0.3179948159         -0.3855
C603       C    1.0142195166    0.4993625447   -0.2652763832          0.6038
N604       N    1.0100220763    0.4946132412   -0.2314802837          0.6067
N605       N    0.9866865034    0.4947190838   -0.2420085369           0.607
N606       N    0.9706134551    0.4844024083   -0.2664679880         -0.3826
N607       N    1.0134485325    0.4659014915   -0.2201077489         -0.3676
H608       H    1.0362210036    0.4882144572   -0.2711592263         -0.3858
H609       H    1.0171402414    0.5241694831   -0.2709522742          0.5814
H610       H    0.9867582031    0.4597427367   -0.2822264937         -0.3595
N611       N    1.0222979779    0.4643092397   -0.1918526544         -0.3672
C612       C    1.0111154673    0.4884680981   -0.1697549914         -0.3901
O613       O    1.0203832284    0.4822630759   -0.1383484467         -0.3857
C614       C    0.9680736121    0.4962809285   -0.1342815453          0.6013
C615       C    0.9754014244    0.4895594367   -0.1681628170         -0.3912
H616       H    0.9662353017    0.5078879252   -0.1830082154          0.5927
H617       H    0.9542112592    0.5173242493   -0.1317449919           0.582
H618       H    0.9552745954    0.4767746350   -0.1244364639         -0.3813
H619       H    0.9650562489    0.4674942727   -0.1750852637         -0.3709
H620       H    1.0072498486    0.5242455599   -0.1193114574          0.5753
C621       C    1.0000000000    0.5000000000   -0.1186761896          0.5973
H622       H    1.0206585728    0.5112679536   -0.1760008223          0.5894
C623       C    0.9060562552    0.5005479465   -0.3471714695          0.6058
H624       H    0.8844685761    0.5004778154   -0.3339489920          0.6053
H625       H    0.9041447936    0.4829694667   -0.3652533165         -0.3775
H626       H    0.9085427233    0.5233474363   -0.3578426840          0.5855
H627       H    0.9295605098    0.4707304891   -0.3151785501         -0.3683
H628       H    0.9318106997    0.5103510835   -0.3064018628          0.5953
C555       C    1.0000000000    0.5000000000    0.1186761896          0.6078
C556       C    0.9712875596    0.4990009830    0.1306330870          0.6082
C557       C    0.9663520746    0.4948126674    0.1611378016         -0.3892
C558       C    0.9911158813    0.4914018842    0.1799834596         -0.3869
C559       C    1.0195314885    0.4926831220    0.1678918974         -0.3875
C560       C    1.0240102852    0.4970785926    0.1379619874         -0.3903
C561       C    0.9878669466    0.4849682921    0.2146836651         -0.3824
C562       C    0.9334445876    0.4936228729    0.1747043470         -0.3887
H563       H    0.9516427538    0.5013473881    0.1150898713          0.6066
H564       H    1.0477721959    0.4978868514    0.1296823976         -0.3907
H565       H    1.0400977590    0.4899379364    0.1820051841         -0.3855
C566       C    1.0142195166    0.4993625447    0.2347236168          0.6038
N567       N    1.0100220763    0.4946132412    0.2685197163          0.6067
N568       N    0.9866865034    0.4947190838    0.2579914631           0.607
N569       N    0.9706134551    0.4844024083    0.2335320120         -0.3826
N570       N    1.0134485325    0.4659014915    0.2798922511         -0.3676
H571       H    1.0362210036    0.4882144572    0.2288407737         -0.3858
H572       H    1.0171402414    0.5241694831    0.2290477258          0.5814
H573       H    0.9867582031    0.4597427367    0.2177735063         -0.3595
N574       N    1.0222979779    0.4643092397    0.3081473456         -0.3672
C575       C    1.0111154673    0.4884680981    0.3302450086         -0.3901
O576       O    1.0203832284    0.4822630759    0.3616515533         -0.3857
C577       C    0.9680736121    0.4962809285    0.3657184547          0.6013
C578       C    0.9754014244    0.4895594367    0.3318371830         -0.3912
H579       H    0.9662353017    0.5078879252    0.3169917846          0.5927
H580       H    0.9542112592    0.5173242493    0.3682550081           0.582
H581       H    0.9552745954    0.4767746350    0.3755635361         -0.3813
H582       H    0.9650562489    0.4674942727    0.3249147363         -0.3709
H583       H    1.0072498486    0.5242455599    0.3806885426          0.5753
C584       C    1.0000000000    0.5000000000    0.3813238104          0.5973
H585       H    1.0206585728    0.5112679536    0.3239991777          0.5894
C586       C    0.9060562552    0.5005479465    0.1528285305          0.6058
H587       H    0.8844685761    0.5004778154    0.1660510080          0.6053
H588       H    0.9041447936    0.4829694667    0.1347466835         -0.3775
H589       H    0.9085427233    0.5233474363    0.1421573160          0.5855
H590       H    0.9295605098    0.4707304891    0.1848214499         -0.3683
H591       H    0.9318106997    0.5103510835    0.1935981372          0.5953
C518       C    1.0000000000   -0.3813238104    0.5000000000          0.6078
C519       C    0.9712875596   -0.3693669130    0.5009990170          0.6082
C520       C    0.9663520746   -0.3388621984    0.5051873326         -0.3892
C521       C    0.9911158813   -0.3200165404    0.5085981158         -0.3869
C522       C    1.0195314885   -0.3321081026    0.5073168780         -0.3875
C523       C    1.0240102852   -0.3620380126    0.5029214074         -0.3903
C524       C    0.9878669466   -0.2853163349    0.5150317079         -0.3824
C525       C    0.9334445876   -0.3252956530    0.5063771271         -0.3887
H526       H    0.9516427538   -0.3849101287    0.4986526119          0.6066
H527       H    1.0477721959   -0.3703176024    0.5021131486         -0.3907
H528       H    1.0400977590   -0.3179948159    0.5100620636         -0.3855
C529       C    1.0142195166   -0.2652763832    0.5006374553          0.6038
N530       N    1.0100220763   -0.2314802837    0.5053867588          0.6067
N531       N    0.9866865034   -0.2420085369    0.5052809162           0.607
N532       N    0.9706134551   -0.2664679880    0.5155975917         -0.3826
N533       N    1.0134485325   -0.2201077489    0.5340985085         -0.3676
H534       H    1.0362210036   -0.2711592263    0.5117855428         -0.3858
H535       H    1.0171402414   -0.2709522742    0.4758305169          0.5814
H536       H    0.9867582031   -0.2822264937    0.5402572633         -0.3595
N537       N    1.0222979779   -0.1918526544    0.5356907603         -0.3672
C538       C    1.0111154673   -0.1697549914    0.5115319019         -0.3901
O539       O    1.0203832284   -0.1383484467    0.5177369241         -0.3857
C540       C    0.9680736121   -0.1342815453    0.5037190715          0.6013
C541       C    0.9754014244   -0.1681628170    0.5104405633         -0.3912
H542       H    0.9662353017   -0.1830082154    0.4921120748          0.5927
H543       H    0.9542112592   -0.1317449919    0.4826757507           0.582
H544       H    0.9552745954   -0.1244364639    0.5232253650         -0.3813
H545       H    0.9650562489   -0.1750852637    0.5325057273         -0.3709
H546       H    1.0072498486   -0.1193114574    0.4757544401          0.5753
C547       C    1.0000000000   -0.1186761896    0.5000000000          0.5973
H548       H    1.0206585728   -0.1760008223    0.4887320464          0.5894
C549       C    0.9060562552   -0.3471714695    0.4994520535          0.6058
H550       H    0.8844685761   -0.3339489920    0.4995221846          0.6053
H551       H    0.9041447936   -0.3652533165    0.5170305333         -0.3775
H552       H    0.9085427233   -0.3578426840    0.4766525637          0.5855
H553       H    0.9295605098   -0.3151785501    0.5292695109         -0.3683
H554       H    0.9318106997   -0.3064018628    0.4896489165          0.5953
C481       C    1.0000000000    0.1186761896    0.5000000000          0.6078
C482       C    0.9886988442    0.1306330870    0.4735862508          0.6082
C483       C    0.9830107492    0.1611378016    0.4704964975         -0.3892
C484       C    0.9887736779    0.1799834596    0.4948207286         -0.3869
C485       C    1.0002308045    0.1678918974    0.5208557540         -0.3875
C486       C    1.0059471389    0.1379619874    0.5234448280         -0.3903
C487       C    0.9816009490    0.2146836651    0.4941145817         -0.3824
C488       C    0.9700166411    0.1747043470    0.4402397385         -0.3887
H489       H    0.9837921149    0.1150898713    0.4544199257          0.6066
H490       H    1.0152825159    0.1296823976    0.5453110671         -0.3907
H491       H    1.0050984574    0.1820051841    0.5410253718         -0.3855
C492       C    1.0045409806    0.2347236168    0.5134900147          0.6038
N493       N    0.9985963072    0.2685197163    0.5112910952          0.6067
N494       N    0.9902673089    0.2579914631    0.4894922890           0.607
N495       N    0.9748421193    0.2335320120    0.4782299536         -0.3826
N496       N    0.9730598775    0.2798922511    0.5248556052         -0.3676
H497       H    1.0020912020    0.2288407737    0.5380327095         -0.3858
H498       H    1.0287284465    0.2290477258    0.5072545261          0.5814
H499       H    0.9576775212    0.2177735063    0.5021909398         -0.3595
N500       N    0.9747710900    0.3081473456    0.5336828189         -0.3672
C501       C    0.9932608001    0.3302450086    0.5145300227         -0.3901
O502       O    0.9908216484    0.3616515533    0.5254132316         -0.3857
C503       C    0.9850016501    0.3657184547    0.4715715770          0.6013
C504       C    0.9813802698    0.3318371830    0.4808322946         -0.3912
H505       H    0.9951613435    0.3169917846    0.4656654457          0.5927
H506       H    0.9996182688    0.3682550081    0.4510449933           0.582
H507       H    0.9621895032    0.3755635361    0.4666811506         -0.3813
H508       H    0.9570681693    0.3249147363    0.4791542339         -0.3709
H509       H    1.0252274500    0.3806885426    0.4980041920          0.5753
C510       C    1.0000000000    0.3813238104    0.5000000000          0.5973
H511       H    1.0179683360    0.3239991777    0.5151948120          0.5894
C512       C    0.9665829585    0.1528285305    0.4121989250          0.6058
H513       H    0.9587211195    0.1660510080    0.3920935951          0.6053
H514       H    0.9495005773    0.1347466835    0.4167649836         -0.3775
H515       H    0.9887416321    0.1421573160    0.4062834839          0.5855
H516       H    0.9472665932    0.1848214499    0.4448854479         -0.3683
H517       H    0.9850257291    0.1935981372    0.4326746941          0.5953
C444       C    0.6186761896   -0.0000000000    0.5000000000          0.6078
C445       C    0.6306330870   -0.0260454151    0.4878740516          0.6082
C446       C    0.6611378016   -0.0289548225    0.4820916345         -0.3892
C447       C    0.6799834596   -0.0048237856    0.4886164042         -0.3869
C448       C    0.6678918974    0.0208381897    0.5008863402         -0.3875
C449       C    0.6379619874    0.0232462774    0.5066812427         -0.3903
C450       C    0.7146836651   -0.0053040917    0.4814250212         -0.3824
C451       C    0.6747043470   -0.0587881259    0.4681527566         -0.3887
H452       H    0.6150898713   -0.0450480121    0.4823672090          0.6066
H453       H    0.6296823976    0.0448082291    0.5166994222         -0.3907
H454       H    0.6820051841    0.0408448120    0.5063856666         -0.3855
C455       C    0.7347236168    0.0133405905    0.5049628265          0.6038
N456       N    0.7685197163    0.0113296426    0.4989519632          0.6067
N457       N    0.7579914631   -0.0101965472    0.4899417849           0.607
N458       N    0.7335320120   -0.0209683888    0.4741701615         -0.3826
N459       N    0.7798922511    0.0256902458    0.4738545878         -0.3676
H460       H    0.7288407737    0.0379481690    0.5032858161         -0.3858
H461       H    0.7290477258    0.0063477940    0.5289423098          0.5814
H462       H    0.7177735063    0.0035203637    0.4577673175         -0.3595
N463       N    0.8081473456    0.0344593005    0.4758424588         -0.3672
C464       C    0.8302450086    0.0147347035    0.4937209166         -0.3901
O465       O    0.8616515533    0.0256892135    0.4916251099         -0.3857
C466       C    0.8657184547   -0.0279428631    0.4841153489          0.6013
C467       C    0.8318371830   -0.0185728762    0.4807868911         -0.3912
H468       H    0.8169917846   -0.0341654690    0.4940843476          0.5927
H469       H    0.8682550081   -0.0489188088    0.4980794415           0.582
H470       H    0.8755635361   -0.0321137187    0.4611607355         -0.3813
H471       H    0.8249147363   -0.0194857993    0.4564340537         -0.3709
H472       H    0.8806885426   -0.0027879058    0.5251522377          0.5753
C473       C    0.8813238104   -0.0000000000    0.5000000000          0.5973
H474       H    0.8239991777    0.0146224246    0.5184371394          0.5894
C475       C    0.6528285305   -0.0867071336    0.4638392422          0.6058
H476       H    0.6660510080   -0.1065553706    0.4553492306          0.6053
H477       H    0.6347466835   -0.0816063071    0.4469088492         -0.3775
H478       H    0.6421573160   -0.0933162610    0.4858009974          0.5855
H479       H    0.6848214499   -0.0534295115    0.4455600023         -0.3683
H480       H    0.6935981372   -0.0668212771    0.4829166010          0.5953
C407       C    1.3813238104   -0.0000000000    0.5000000000          0.6078
C408       C    1.3693669130    0.0260132602    0.4878052240          0.6082
C409       C    1.3388621984    0.0289073675    0.4820151339         -0.3892
C410       C    1.3200165404    0.0047936679    0.4886036888         -0.3869
C411       C    1.3321081026   -0.0208357731    0.5009414381         -0.3875
C412       C    1.3620380126   -0.0232285294    0.5067426879         -0.3903
C413       C    1.2853163349    0.0052549567    0.4814110609         -0.3824
C414       C    1.3252956530    0.0587037090    0.4679974186         -0.3887
H415       H    1.3849101287    0.0450012295    0.4822481534          0.6066
H416       H    1.3703176024   -0.0447639153    0.5168178471         -0.3907
H417       H    1.3179948159   -0.0408277840    0.5064936473         -0.3855
C418       C    1.2652763832   -0.0133274210    0.5049980848          0.6038
N419       N    1.2314802837   -0.0113323743    0.4989819251          0.6067
N420       N    1.2420085369    0.0101699154    0.4899148581           0.607
N421       N    1.2664679880    0.0209000155    0.4741148066         -0.3826
N422       N    1.2201077489   -0.0257592905    0.4739226101         -0.3676
H423       H    1.2711592263   -0.0379393479    0.5033861483         -0.3858
H424       H    1.2709522742   -0.0062712417    0.5289589937          0.5814
H425       H    1.2822264937   -0.0036320243    0.4577767738         -0.3595
N426       N    1.1918526544   -0.0345230581    0.4759336615         -0.3672
C427       C    1.1697549914   -0.0147512553    0.4937599005         -0.3901
O428       O    1.1383484467   -0.0257112689    0.4916930673         -0.3857
C429       C    1.1342815453    0.0279007628    0.4840415171          0.6013
C430       C    1.1681628170    0.0185220074    0.4807378474         -0.3912
H431       H    1.1830082154    0.0341497072    0.4939940269          0.5927
H432       H    1.1317449919    0.0489135594    0.4979500957           0.582
H433       H    1.1244364639    0.0320109065    0.4610759552         -0.3813
H434       H    1.1750852637    0.0193705328    0.4563826811         -0.3709
H435       H    1.1193114574    0.0028544044    0.5251447779          0.5753
C436       C    1.1186761896   -0.0000000000    0.5000000000          0.5973
H437       H    1.1760008223   -0.0145736215    0.5184757400          0.5894
C438       C    1.3471714695    0.0866112132    0.4636100950          0.6058
H439       H    1.3339489920    0.1064369312    0.4550676299          0.6053
H440       H    1.3652533165    0.0814656366    0.4466932490         -0.3775
H441       H    1.3578426840    0.0932783894    0.4855542975          0.5855
H442       H    1.3151785501    0.0532853728    0.4454189127         -0.3683
H443       H    1.3064018628    0.0667758711    0.4827399699          0.5953
C370       C    0.0000000000   -0.1186761896    0.0000000000          0.6078
C371       C    0.0092866807   -0.1306330870   -0.0271874940          0.6082
C372       C    0.0147268155   -0.1611378016   -0.0306954754         -0.3892
C373       C    0.0108059014   -0.1799834596   -0.0060073001         -0.3869
C374       C    0.0013352632   -0.1678918974    0.0208142456         -0.3875
C375       C   -0.0041706119   -0.1379619874    0.0238250795         -0.3903
C376       C    0.0179053938   -0.2146836651   -0.0072498344         -0.3824
C377       C    0.0254132194   -0.1747043470   -0.0618422100         -0.3887
H378       H    0.0127409590   -0.1150898713   -0.0466680477          0.6066
H379       H   -0.0118383916   -0.1296823976    0.0463303419         -0.3907
H380       H   -0.0020047426   -0.1820051841    0.0412923287         -0.3855
C381       C   -0.0035156209   -0.2347236168    0.0137928029          0.6038
N382       N    0.0022472339   -0.2685197163    0.0111538838          0.6067
N383       N    0.0089165353   -0.2579914631   -0.0112085978           0.607
N384       N    0.0234528696   -0.2335320120   -0.0235969658         -0.3826
N385       N    0.0287297689   -0.2798922511    0.0227633848         -0.3676
H386       H    0.0007694027   -0.2288407737    0.0380823862         -0.3858
H387       H   -0.0281028867   -0.2290477258    0.0093903965          0.5814
H388       H    0.0423675406   -0.2177735063   -0.0009919330         -0.3595
N389       N    0.0276859474   -0.3081473456    0.0316941399         -0.3672
C390       C    0.0078108014   -0.3302450086    0.0139831955         -0.3901
O391       O    0.0110599576   -0.3616515533    0.0246526229         -0.3857
C392       C    0.0128222254   -0.3657184547   -0.0294739932          0.6013
C393       C    0.0171284923   -0.3318371830   -0.0205112173         -0.3912
H394       H    0.0022478821   -0.3169917846   -0.0346008850          0.5927
H395       H   -0.0032938703   -0.3682550081   -0.0488455608           0.582
H396       H    0.0352029494   -0.3755635361   -0.0360628861         -0.3813
H397       H    0.0412460563   -0.3249147363   -0.0240093916         -0.3709
H398       H   -0.0253060891   -0.3806885426   -0.0000966252          0.5753
C399       C    0.0000000000   -0.3813238104    0.0000000000          0.5973
H400       H   -0.0167771379   -0.3239991777    0.0165006379          0.5894
C401       C    0.0267324942   -0.1528285305   -0.0900616521          0.6058
H402       H    0.0330630652   -0.1660510080   -0.1107003700          0.6053
H403       H    0.0441094122   -0.1347466835   -0.0867906643         -0.3775
H404       H    0.0041923201   -0.1421573160   -0.0942971935          0.5855
H405       H    0.0484477946   -0.1848214499   -0.0589172067         -0.3683
H406       H    0.0098786445   -0.1935981372   -0.0682593435          0.5953
C333       C    0.0000000000    0.3813238104    0.0000000000          0.6078
C334       C   -0.0287265052    0.3693669130   -0.0004360824          0.6082
C335       C   -0.0337431301    0.3388621984   -0.0045268616         -0.3892
C336       C   -0.0090509289    0.3200165404   -0.0084223420         -0.3869
C337       C    0.0193843314    0.3321081026   -0.0076982754         -0.3875
C338       C    0.0239484158    0.3620380126   -0.0033914302         -0.3903
C339       C   -0.0124253333    0.2853163349   -0.0147910216         -0.3824
C340       C   -0.0666676151    0.3252956530   -0.0050714650         -0.3887
H341       H   -0.0483215497    0.3849101287    0.0022948957          0.6066
H342       H    0.0477216034    0.3703176024   -0.0030490426         -0.3907
H343       H    0.0398928478    0.3179948159   -0.0108460174         -0.3855
C344       C    0.0142042916    0.2652763832   -0.0009160249          0.6038
N345       N    0.0099145747    0.2314802837   -0.0055821494          0.6067
N346       N   -0.0134144413    0.2420085369   -0.0050189670           0.607
N347       N   -0.0296866015    0.2664679880   -0.0150186410         -0.3826
N348       N    0.0127776435    0.2201077489   -0.0343555401         -0.3676
H349       H    0.0359830581    0.2711592263   -0.0124931840         -0.3858
H350       H    0.0176106531    0.2709522742    0.0238289044          0.5814
H351       H   -0.0140282661    0.2822264937   -0.0399900010         -0.3595
N352       N    0.0215941822    0.1918526544   -0.0361209286         -0.3672
C353       C    0.0108873154    0.1697549914   -0.0117475418         -0.3901
O354       O    0.0200316825    0.1383484467   -0.0181330134         -0.3857
C355       C   -0.0319931464    0.1342815453   -0.0030926234          0.6013
C356       C   -0.0247984779    0.1681628170   -0.0099564439         -0.3912
H357       H   -0.0336036151    0.1830082154    0.0085481733          0.5927
H358       H   -0.0454404029    0.1317449919    0.0182183473           0.582
H359       H   -0.0451720137    0.1244364639   -0.0223443188         -0.3813
H360       H   -0.0355741273    0.1750852637   -0.0318146116         -0.3709
H361       H    0.0077236511    0.1193114574    0.0240988111          0.5753
C362       C   -0.0000000000    0.1186761896    0.0000000000          0.5973
H363       H    0.0208754483    0.1760008223    0.0108608964          0.5894
C364       C   -0.0939149604    0.3471714695    0.0023890696          0.6058
H365       H   -0.1154998673    0.3339489920    0.0027420546          0.6053
H366       H   -0.0961705801    0.3652533165   -0.0151485705         -0.3775
H367       H   -0.0909821166    0.3578426840    0.0251354470          0.5855
H368       H   -0.0709996208    0.3151785501   -0.0278833265         -0.3683
H369       H   -0.0679733286    0.3064018628    0.0116855554          0.5953
C296       C   -0.3813238104   -0.0000000000    0.0000000000          0.6078
C297       C   -0.3693669130    0.0207705746   -0.0198490680          0.6082
C298       C   -0.3388621984    0.0272152125   -0.0204554030         -0.3892
C299       C   -0.3200165404    0.0123584555   -0.0003517631         -0.3869
C300       C   -0.3321081026   -0.0084067405    0.0190877568         -0.3875
C301       C   -0.3620380126   -0.0146806232    0.0192225836         -0.3903
C302       C   -0.2853163349    0.0192317765    0.0018171404         -0.3824
C303       C   -0.3252956530    0.0510525535   -0.0431732260         -0.3887
H304       H   -0.3849101287    0.0328133828   -0.0355460352          0.6066
H305       H   -0.3703176024   -0.0318567394    0.0356622525         -0.3907
H306       H   -0.3179948159   -0.0208078218    0.0357226812         -0.3855
C307       C   -0.2652763832   -0.0094761781    0.0106208780          0.6038
N308       N   -0.2314802837   -0.0031456172    0.0109345451          0.6067
N309       N   -0.2420085369    0.0130785624   -0.0058385334           0.607
N310       N   -0.2664679880    0.0316883095   -0.0101343439         -0.3826
N311       N   -0.2201077489    0.0150073878    0.0334417347         -0.3676
H312       H   -0.2711592263   -0.0168665669    0.0341522919         -0.3858
H313       H   -0.2709522742   -0.0292683771   -0.0046166967          0.5814
H314       H   -0.2822264937    0.0380578708    0.0186437898         -0.3595
N315       N   -0.1918526544    0.0099654709    0.0408866675         -0.3672
C316       C   -0.1697549914    0.0004881682    0.0160093743         -0.3901
O317       O   -0.1383484467   -0.0015450024    0.0269756825         -0.3857
C318       C   -0.1342815453    0.0249620159   -0.0202490371          0.6013
C319       C   -0.1681628170    0.0246534919   -0.0103102193         -0.3912
H320       H   -0.1830082154    0.0179400056   -0.0296720477          0.5927
H321       H   -0.1317449919    0.0195860926   -0.0448678434           0.582
H322       H   -0.1244364639    0.0478610224   -0.0157829634         -0.3813
H323       H   -0.1750852637    0.0476696387   -0.0023007810         -0.3709
H324       H   -0.1193114574   -0.0224143689   -0.0117474911          0.5753
C325       C   -0.1186761896   -0.0000000000    0.0000000000          0.5973
H326       H   -0.1760008223   -0.0224934839    0.0069127847          0.5894
C327       C   -0.3471714695    0.0652276864   -0.0676097357          0.6058
H328       H   -0.3339489920    0.0803568887   -0.0830090877          0.6053
H329       H   -0.3652533165    0.0791421636   -0.0566990088         -0.3775
H330       H   -0.3578426840    0.0471753644   -0.0817558636          0.5855
H331       H   -0.3151785501    0.0701475830   -0.0299623538         -0.3683
H332       H   -0.3064018628    0.0402229669   -0.0560271232          0.5953
C259       C    0.1186761896   -0.0000000000    0.0000000000          0.6078
C260       C    0.1306330870   -0.0282726771    0.0051047034          0.6082
C261       C    0.1611378016   -0.0339832504    0.0020566954         -0.3892
C262       C    0.1799834596   -0.0105035907   -0.0065214831         -0.3869
C263       C    0.1678918974    0.0175387589   -0.0112875012         -0.3875
C264       C    0.1379619874    0.0228468777   -0.0079403147         -0.3903
C265       C    0.2146836651   -0.0150414044   -0.0121210305         -0.3824
C266       C    0.1747043470   -0.0663962138    0.0078634254         -0.3887
H267       H    0.1150898713   -0.0469748878    0.0115584873          0.6066
H268       H    0.1296823976    0.0462409277   -0.0121829677         -0.3907
H269       H    0.1820051841    0.0370570723   -0.0183261778         -0.3855
C270       C    0.2347236168    0.0137619366   -0.0036345706          0.6038
N271       N    0.2685197163    0.0086538527   -0.0073871521          0.6067
N272       N    0.2579914631   -0.0141299319   -0.0023414291           0.607
N273       N    0.2335320120   -0.0320233468   -0.0090199303         -0.3826
N274       N    0.2798922511    0.0059216679   -0.0361732658         -0.3676
H275       H    0.2288407737    0.0329032431   -0.0191894948         -0.3858
H276       H    0.2290477258    0.0218703087    0.0199910326          0.5814
H277       H    0.2177735063   -0.0214675600   -0.0365395170         -0.3595
N278       N    0.3081473456    0.0142331363   -0.0396036364         -0.3672
C279       C    0.3302450086    0.0084209494   -0.0136244628         -0.3901
O280       O    0.3616515533    0.0161642974   -0.0216515581         -0.3857
C281       C    0.3657184547   -0.0319898007    0.0031270414          0.6013
C282       C    0.3318371830   -0.0262517775   -0.0049939423         -0.3912
H283       H    0.3169917846   -0.0313281428    0.0148600702          0.5927
H284       H    0.3682550081   -0.0410808822    0.0266289225           0.582
H285       H    0.3755635361   -0.0486297412   -0.0132260225         -0.3813
H286       H    0.3249147363   -0.0410354903   -0.0243675314         -0.3709
H287       H    0.3806885426    0.0122203937    0.0221600871          0.5753
C288       C    0.3813238104   -0.0000000000    0.0000000000          0.5973
H289       H    0.3239991777    0.0225763889    0.0066370231          0.5894
C290       C    0.1528285305   -0.0916965637    0.0204320249          0.6058
H291       H    0.1660510080   -0.1128093756    0.0249355767          0.6053
H292       H    0.1347466835   -0.0972876402    0.0036571478         -0.3775
H293       H    0.1421573160   -0.0844377581    0.0421876908          0.5855
H294       H    0.1848214499   -0.0750405983   -0.0136870250         -0.3683
H295       H    0.1935981372   -0.0644501399    0.0245581975          0.5953
C222       C   -0.0000000000    0.0000000000   -0.3813238104          0.6078
C223       C   -0.0073453257   -0.0277749610   -0.3693669130          0.6082
C224       C   -0.0047629004   -0.0337106227   -0.3388621984         -0.3892
C225       C    0.0056622053   -0.0109906593   -0.3200165404         -0.3869
C226       C    0.0126515401    0.0165817454   -0.3321081026         -0.3875
C227       C    0.0097387646    0.0221401193   -0.3620380126         -0.3903
C228       C    0.0108816448   -0.0159609847   -0.2853163349         -0.3824
C229       C   -0.0131385173   -0.0655566170   -0.3252956530         -0.3887
H230       H   -0.0152714485   -0.0459023047   -0.3849101287          0.6066
H231       H    0.0158353464    0.0451208367   -0.3703176024         -0.3907
H232       H    0.0212258358    0.0354758974   -0.3179948159         -0.3855
C233       C    0.0047215408    0.0134278835   -0.2652763832          0.6038
N234       N    0.0080543858    0.0080365448   -0.2314802837          0.6067
N235       N    0.0012060122   -0.0142717483   -0.2420085369           0.607
N236       N    0.0064348297   -0.0326411834   -0.2664679880         -0.3826
N237       N    0.0365305351    0.0030151805   -0.2201077489         -0.3676
H238       H    0.0217548116    0.0312664084   -0.2711592263         -0.3858
H239       H   -0.0181814034    0.0233963321   -0.2709522742          0.5814
H240       H    0.0347092277   -0.0243158784   -0.2822264937         -0.3595
N241       N    0.0406134351    0.0110262901   -0.1918526544         -0.3672
C242       C    0.0142531999    0.0073064812   -0.1697549914         -0.3901
O243       O    0.0228728042    0.0143843423   -0.1383484467         -0.3857
C244       C   -0.0056707002   -0.0316380925   -0.1342815453          0.6013
C245       C    0.0028824145   -0.0265666515   -0.1681628170         -0.3912
H246       H   -0.0173134683   -0.0300419379   -0.1830082154          0.5927
H247       H   -0.0298232916   -0.0388240862   -0.1317449919           0.582
H248       H    0.0093018667   -0.0495303410   -0.1244364639         -0.3813
H249       H    0.0210140439   -0.0428497142   -0.1750852637         -0.3709
H250       H   -0.0211138562    0.0139503606   -0.1193114574          0.5753
C251       C   -0.0000000000    0.0000000000   -0.1186761896          0.5973
H252       H   -0.0048136458    0.0230341534   -0.1760008223          0.5894
C253       C   -0.0276866491   -0.0897729185   -0.3471714695          0.6058
H254       H   -0.0338611936   -0.1104588510   -0.3339489920          0.6053
H255       H   -0.0114116214   -0.0966852344   -0.3652533165         -0.3775
H256       H   -0.0487934416   -0.0808005959   -0.3578426840          0.5855
H257       H    0.0076531084   -0.0758937150   -0.3151785501         -0.3683
H258       H   -0.0296246639   -0.0622840661   -0.3064018628          0.5953
C185       C    0.0000000000   -0.0000000000    0.1186761896          0.6078
C186       C    0.0017522271   -0.0286763312    0.1306330870          0.6082
C187       C    0.0060686312   -0.0335001943    0.1611378016         -0.3892
C188       C    0.0088283166   -0.0086554021    0.1799834596         -0.3869
C189       C    0.0068017563    0.0197167913    0.1678918974         -0.3875
C190       C    0.0022902544    0.0240786867    0.1379619874         -0.3903
C191       C    0.0153449605   -0.0117343689    0.2146836651         -0.3824
C192       C    0.0081216685   -0.0663651201    0.1747043470         -0.3887
H193       H   -0.0000777944   -0.0483759513    0.1150898713          0.6066
H194       H    0.0008586458    0.0478111998    0.1296823976         -0.3907
H195       H    0.0090062373    0.0403480246    0.1820051841         -0.3855
C196       C    0.0002640463    0.0142313485    0.2347236168          0.6038
N197       N    0.0051218752    0.0101599989    0.2685197163          0.6067
N198       N    0.0056285081   -0.0131703137    0.2579914631           0.607
N199       N    0.0163634650   -0.0289670657    0.2335320120         -0.3826
N200       N    0.0337338081    0.0143388109    0.2798922511         -0.3676
H201       H    0.0108308677    0.0365178371    0.2288407737         -0.3858
H202       H   -0.0246110011    0.0165000124    0.2290477258          0.5814
H203       H    0.0405909256   -0.0121806891    0.2177735063         -0.3595
N204       N    0.0350932589    0.0232269965    0.3081473456         -0.3672
C205       C    0.0112362057    0.0114142918    0.3302450086         -0.3901
O206       O    0.0171958593    0.0208417106    0.3616515533         -0.3857
C207       C    0.0045556943   -0.0318177841    0.3657184547          0.6013
C208       C    0.0110825534   -0.0243160912    0.3318371830         -0.3912
H209       H   -0.0069990581   -0.0339600854    0.3169917846          0.5927
H210       H   -0.0161165624   -0.0462276412    0.3682550081           0.582
H211       H    0.0243911773   -0.0441004521    0.3755635361         -0.3813
H212       H    0.0334116246   -0.0340786060    0.3249147363         -0.3709
H213       H   -0.0244274797    0.0066110298    0.3806885426          0.5753
C214       C   -0.0000000000    0.0000000000    0.3813238104          0.5973
H215       H   -0.0118062538    0.0203557309    0.3239991777          0.5894
C216       C    0.0019177834   -0.0939257661    0.1528285305          0.6058
H217       H    0.0025544562   -0.1155041686    0.1660510080          0.6053
H218       H    0.0195403743   -0.0953752244    0.1347466835         -0.3807
H219       H   -0.0209391100   -0.0920385241    0.1421573160          0.5855
H220       H    0.0311081040   -0.0696470525    0.1848214499         -0.3683
H221       H   -0.0085578988   -0.0684374749    0.1935981372          0.5953
loop_
_geom_bond_atom_site_label_1
_geom_bond_atom_site_label_2
_geom_bond_distance
_geom_bond_site_symmetry_2
_ccdc_geom_bond_type
Zn1          O5 1.942       .   S
Zn1          O6 1.922       .   S
Zn1         O10 1.922       .   S
Zn1         O17 1.922       .   S
Zn2          O5 1.942       .   S
Zn2          O7 1.922       .   S
Zn2          O9 1.922       .   S
Zn2         O13 1.922       .   S
Zn3          O5 1.942       .   S
Zn3          O8 1.922       .   S
Zn3         O11 1.922       .   S
Zn3         O14 1.922       .   S
Zn4          O5 1.942       .   S
Zn4         O12 1.922       .   S
Zn4         O15 1.922       .   S
Zn4         O16 1.922       .   S
O6          C18 1.304       .   A
O7          C19 1.304       .   A
O8          C20 1.304       .   A
O9          C18 1.304       .   A
O10         C20 1.304       .   A
O11         C19 1.304       .   A
O12         C21 1.304       .   A
O13         C22 1.304       .   A
O14         C21 1.304       .   A
O15         C22 1.304       .   A
O16         C23 1.304       .   A
O17         C23 1.304       .   A
C18        C370 1.540       .   S
C19        C325 1.540       .   S
C20        C185 1.540       .   S
C21        C362 1.540       .   S
C22        C251 1.540       .   S
C23        C259 1.540       .   S
Zn24        O28 1.942       .   S
Zn24        O29 1.922       .   S
Zn24        O33 1.922       .   S
Zn24        O40 1.922       .   S
Zn25        O28 1.942       .   S
Zn25        O30 1.922       .   S
Zn25        O32 1.922       .   S
Zn25        O36 1.922       .   S
Zn26        O28 1.942       .   S
Zn26        O31 1.922       .   S
Zn26        O34 1.922       .   S
Zn26        O37 1.922       .   S
Zn27        O28 1.942       .   S
Zn27        O35 1.922       .   S
Zn27        O38 1.922       .   S
Zn27        O39 1.922       .   S
O29         C41 1.304       .   A
O30         C42 1.304       .   A
O31         C43 1.304       .   A
O32         C41 1.304       .   A
O33         C43 1.304       .   A
O34         C42 1.304       .   A
O35         C44 1.304       .   A
O36         C45 1.304       .   A
O37         C44 1.304       .   A
O38         C45 1.304       .   A
O39         C46 1.304       .   A
O40         C46 1.304       .   A
C41        C547 1.540       .   S
C42        C436 1.540       .   S
C43        C214 1.540   1_655   S
C44        C481 1.540       .   S
C45        C222 1.540   1_656   S
C46        C473 1.540       .   S
Zn47        O51 1.942       .   S
Zn47        O52 1.922       .   S
Zn47        O56 1.922       .   S
Zn47        O63 1.922       .   S
Zn48        O51 1.942       .   S
Zn48        O53 1.922       .   S
Zn48        O55 1.922       .   S
Zn48        O59 1.922       .   S
Zn49        O51 1.942       .   S
Zn49        O54 1.922       .   S
Zn49        O57 1.922       .   S
Zn49        O60 1.922       .   S
Zn50        O51 1.942       .   S
Zn50        O58 1.922       .   S
Zn50        O61 1.922       .   S
Zn50        O62 1.922       .   S
O52         C64 1.304       .   A
O53         C65 1.304       .   A
O54         C66 1.304       .   A
O55         C64 1.304       .   A
O56         C66 1.304       .   A
O57         C65 1.304       .   A
O58         C67 1.304       .   A
O59         C68 1.304       .   A
O60         C67 1.304       .   A
O61         C68 1.304       .   A
O62         C69 1.304       .   A
O63         C69 1.304       .   A
C64        C333 1.540   1_655   S
C65        C555 1.540       .   S
C66        C629 1.540       .   S
C67        C399 1.540   1_665   S
C68        C666 1.540       .   S
C69        C621 1.540       .   S
Zn70        O74 1.942       .   S
Zn70        O75 1.922       .   S
Zn70        O79 1.922       .   S
Zn70        O86 1.922       .   S
Zn71        O74 1.942       .   S
Zn71        O76 1.922       .   S
Zn71        O78 1.922       .   S
Zn71        O82 1.922       .   S
Zn72        O74 1.942       .   S
Zn72        O77 1.922       .   S
Zn72        O80 1.922       .   S
Zn72        O83 1.922       .   S
Zn73        O74 1.942       .   S
Zn73        O81 1.922       .   S
Zn73        O84 1.922       .   S
Zn73        O85 1.922       .   S
O75         C87 1.304       .   A
O76         C88 1.304       .   A
O77         C89 1.304       .   A
O78         C87 1.304       .   A
O79         C89 1.304       .   A
O80         C88 1.304       .   A
O81         C90 1.304       .   A
O82         C91 1.304       .   A
O83         C90 1.304       .   A
O84         C91 1.304       .   A
O85         C92 1.304       .   A
O86         C92 1.304       .   A
C87        C510 1.540       .   S
C88        C584 1.540       .   S
C89        C740 1.540       .   S
C90        C518 1.540   1_565   S
C91        C703 1.540       .   S
C92        C592 1.540   1_556   S
Zn93        O97 1.942       .   S
Zn93        O98 1.922       .   S
Zn93       O102 1.922       .   S
Zn93       O109 1.922       .   S
Zn94        O97 1.942       .   S
Zn94        O99 1.922       .   S
Zn94       O101 1.922       .   S
Zn94       O105 1.922       .   S
Zn95        O97 1.942       .   S
Zn95       O100 1.922       .   S
Zn95       O103 1.922       .   S
Zn95       O106 1.922       .   S
Zn96        O97 1.942       .   S
Zn96       O104 1.922       .   S
Zn96       O107 1.922       .   S
Zn96       O108 1.922       .   S
O98        C110 1.304       .   A
O99        C111 1.304       .   A
O100       C112 1.304       .   A
O101       C110 1.304       .   A
O102       C112 1.304       .   A
O103       C111 1.304       .   A
O104       C113 1.304       .   A
O105       C114 1.304       .   A
O106       C113 1.304       .   A
O107       C114 1.304       .   A
O108       C115 1.304       .   A
O109       C115 1.304       .   A
C110       C288 1.540   1_565   S
C111       C806 1.540       .   S
C112       C917 1.540       .   S
C113       C296 1.540   1_665   S
C114       C880 1.540       .   S
C115       C814 1.540       .   S
Zn116      O120 1.942       .   S
Zn116      O121 1.922       .   S
Zn116      O125 1.922       .   S
Zn116      O132 1.922       .   S
Zn117      O120 1.942       .   S
Zn117      O122 1.922       .   S
Zn117      O124 1.922       .   S
Zn117      O128 1.922       .   S
Zn118      O120 1.942       .   S
Zn118      O123 1.922       .   S
Zn118      O126 1.922       .   S
Zn118      O129 1.922       .   S
Zn119      O120 1.942       .   S
Zn119      O127 1.922       .   S
Zn119      O130 1.922       .   S
Zn119      O131 1.922       .   S
O121       C133 1.304       .   A
O122       C134 1.304       .   A
O123       C135 1.304       .   A
O124       C133 1.304       .   A
O125       C135 1.304       .   A
O126       C134 1.304       .   A
O127       C136 1.304       .   A
O128       C137 1.304       .   A
O129       C136 1.304       .   A
O130       C137 1.304       .   A
O131       C138 1.304       .   A
O132       C138 1.304       .   A
C133       C407 1.540   1_465   S
C134       C925 1.540       .   S
C135       C843 1.540   1_556   S
C136       C444 1.540   1_565   S
C137       C777 1.540       .   S
C138       C962 1.540       .   S
Zn139      O143 1.942       .   S
Zn139      O144 1.922       .   S
Zn139      O148 1.922       .   S
Zn139      O155 1.922       .   S
Zn140      O143 1.942       .   S
Zn140      O145 1.922       .   S
Zn140      O147 1.922       .   S
Zn140      O151 1.922       .   S
Zn141      O143 1.942       .   S
Zn141      O146 1.922       .   S
Zn141      O149 1.922       .   S
Zn141      O152 1.922       .   S
Zn142      O143 1.942       .   S
Zn142      O150 1.922       .   S
Zn142      O153 1.922       .   S
Zn142      O154 1.922       .   S
O144       C156 1.304       .   A
O145       C157 1.304       .   A
O146       C158 1.304       .   A
O147       C156 1.304       .   A
O148       C158 1.304       .   A
O149       C157 1.304       .   A
O150       C159 1.304       .   A
O151       C160 1.304       .   A
O152       C159 1.304       .   A
O153       C160 1.304       .   A
O154       C161 1.304       .   A
O155       C161 1.304       .   A
C156       C658 1.540   1_455   S
C157       C851 1.540   1_545   S
C158      C1036 1.540       .   S
C159       C695 1.540       .   S
C160      C1028 1.540       .   S
C161       C888 1.540       .   S
Zn162      O166 1.942       .   S
Zn162      O167 1.922       .   S
Zn162      O171 1.922       .   S
Zn162      O178 1.922       .   S
Zn163      O166 1.942       .   S
Zn163      O168 1.922       .   S
Zn163      O170 1.922       .   S
Zn163      O174 1.922       .   S
Zn164      O166 1.942       .   S
Zn164      O169 1.922       .   S
Zn164      O172 1.922       .   S
Zn164      O175 1.922       .   S
Zn165      O166 1.942       .   S
Zn165      O173 1.922       .   S
Zn165      O176 1.922       .   S
Zn165      O177 1.922       .   S
O167       C179 1.304       .   A
O168       C180 1.304       .   A
O169       C181 1.304       .   A
O170       C179 1.304       .   A
O171       C181 1.304       .   A
O172       C180 1.304       .   A
O173       C182 1.304       .   A
O174       C183 1.304       .   A
O175       C182 1.304       .   A
O176       C183 1.304       .   A
O177       C184 1.304       .   A
O178       C184 1.304       .   A
C179       C732 1.540   1_455   S
C180       C991 1.540       .   S
C181      C1065 1.540   1_556   S
C182       C769 1.540       .   S
C183       C999 1.540       .   S
C184       C954 1.540   1_545   S
C1036     C1037 0.028       .   A
C1036     C1041 0.028       .   A
C1037     C1038 0.028       .   A
C1037     H1044 0.023       .   A
C1038     C1039 0.029       .   A
C1038     C1043 0.032       .   A
C1039     C1040 0.028       .   A
C1039     C1042 0.032       .   A
C1040     C1041 0.028       .   A
C1040     H1046 0.023       .   A
C1041     H1045 0.023       .   A
C1042     C1047 0.033       .   A
C1042     N1050 0.023       .   A
C1042     H1054 0.023       .   A
C1043     C1067 0.033       .   A
C1043     H1071 0.023       .   A
C1043     H1072 0.023       .   A
C1047     N1048 0.031       .   A
C1047     H1052 0.023       .   A
C1047     H1053 0.023       .   A
N1048     N1049 0.023       .   A
N1048     N1051 0.028       .   A
N1049     N1050 0.028       .   A
N1051     N1055 0.027       .   A
N1055     C1056 0.032       .   A
C1056     O1057 0.030       .   A
C1056     C1059 0.033       .   A
C1056     H1066 0.023       .   A
O1057     C1065 0.030       .   A
C1058     C1059 0.032       .   A
C1058     H1061 0.023       .   A
C1058     H1062 0.023       .   A
C1058     C1065 0.033       .   A
C1059     H1060 0.023       .   A
C1059     H1063 0.023       .   A
H1064     C1065 0.023       .   A
C1067     H1068 0.023       .   A
C1067     H1069 0.023       .   A
C1067     H1070 0.023       .   A
C999      C1000 0.028       .   A
C999      C1004 0.028       .   A
C1000     C1001 0.028       .   A
C1000     H1007 0.023       .   A
C1001     C1002 0.029       .   A
C1001     C1006 0.032       .   A
C1002     C1003 0.028       .   A
C1002     C1005 0.032       .   A
C1003     C1004 0.028       .   A
C1003     H1009 0.023       .   A
C1004     H1008 0.023       .   A
C1005     C1010 0.033       .   A
C1005     N1013 0.023       .   A
C1005     H1017 0.023       .   A
C1006     C1030 0.033       .   A
C1006     H1034 0.023       .   A
C1006     H1035 0.023       .   A
C1010     N1011 0.031       .   A
C1010     H1015 0.023       .   A
C1010     H1016 0.023       .   A
N1011     N1012 0.023       .   A
N1011     N1014 0.028       .   A
N1012     N1013 0.028       .   A
N1014     N1018 0.027       .   A
N1018     C1019 0.032       .   A
C1019     O1020 0.030       .   A
C1019     C1022 0.033       .   A
C1019     H1029 0.023       .   A
O1020     C1028 0.030       .   A
C1021     C1022 0.032       .   A
C1021     H1024 0.023       .   A
C1021     H1025 0.023       .   A
C1021     C1028 0.033       .   A
C1022     H1023 0.023       .   A
C1022     H1026 0.023       .   A
H1027     C1028 0.023       .   A
C1030     H1031 0.023       .   A
C1030     H1032 0.023       .   A
C1030     H1033 0.023       .   A
C962       C963 0.028       .   A
C962       C967 0.028       .   A
C963       C964 0.028       .   A
C963       H970 0.023       .   A
C964       C965 0.029       .   A
C964       C969 0.032       .   A
C965       C966 0.028       .   A
C965       C968 0.032       .   A
C966       C967 0.028       .   A
C966       H972 0.023       .   A
C967       H971 0.023       .   A
C968       C973 0.033       .   A
C968       N976 0.023       .   A
C968       H980 0.023       .   A
C969       C993 0.033       .   A
C969       H997 0.023       .   A
C969       H998 0.023       .   A
C973       N974 0.031       .   A
C973       H978 0.023       .   A
C973       H979 0.023       .   A
N974       N975 0.023       .   A
N974       N977 0.028       .   A
N975       N976 0.028       .   A
N977       N981 0.027       .   A
N981       C982 0.032       .   A
C982       O983 0.030       .   A
C982       C985 0.033       .   A
C982       H992 0.023       .   A
O983       C991 0.030       .   A
C984       C985 0.032       .   A
C984       H987 0.023       .   A
C984       H988 0.023       .   A
C984       C991 0.033       .   A
C985       H986 0.023       .   A
C985       H989 0.023       .   A
H990       C991 0.023       .   A
C993       H994 0.023       .   A
C993       H995 0.023       .   A
C993       H996 0.023       .   A
C925       C926 0.028       .   A
C925       C930 0.028       .   A
C926       C927 0.028       .   A
C926       H933 0.023       .   A
C927       C928 0.029       .   A
C927       C932 0.032       .   A
C928       C929 0.028       .   A
C928       C931 0.032       .   A
C929       C930 0.028       .   A
C929       H935 0.023       .   A
C930       H934 0.023       .   A
C931       C936 0.033       .   A
C931       N939 0.023       .   A
C931       H943 0.023       .   A
C932       C956 0.033       .   A
C932       H960 0.023       .   A
C932       H961 0.023       .   A
C936       N937 0.031       .   A
C936       H941 0.023       .   A
C936       H942 0.023       .   A
N937       N938 0.023       .   A
N937       N940 0.028       .   A
N938       N939 0.028       .   A
N940       N944 0.027       .   A
N944       C945 0.032       .   A
C945       O946 0.030       .   A
C945       C948 0.033       .   A
C945       H955 0.023       .   A
O946       C954 0.030       .   A
C947       C948 0.032       .   A
C947       H950 0.023       .   A
C947       H951 0.023       .   A
C947       C954 0.033       .   A
C948       H949 0.023       .   A
C948       H952 0.023       .   A
H953       C954 0.023       .   A
C956       H957 0.023       .   A
C956       H958 0.023       .   A
C956       H959 0.023       .   A
C888       C889 0.028       .   A
C888       C893 0.028       .   A
C889       C890 0.028       .   A
C889       H896 0.023       .   A
C890       C891 0.029       .   A
C890       C895 0.032       .   A
C891       C892 0.028       .   A
C891       C894 0.032       .   A
C892       C893 0.028       .   A
C892       H898 0.023       .   A
C893       H897 0.023       .   A
C894       C899 0.033       .   A
C894       N902 0.023       .   A
C894       H906 0.023       .   A
C895       C919 0.033       .   A
C895       H923 0.023       .   A
C895       H924 0.023       .   A
C899       N900 0.031       .   A
C899       H904 0.023       .   A
C899       H905 0.023       .   A
N900       N901 0.023       .   A
N900       N903 0.028       .   A
N901       N902 0.028       .   A
N903       N907 0.027       .   A
N907       C908 0.032       .   A
C908       O909 0.030       .   A
C908       C911 0.033       .   A
C908       H918 0.023       .   A
O909       C917 0.030       .   A
C910       C911 0.032       .   A
C910       H913 0.023       .   A
C910       H914 0.023       .   A
C910       C917 0.033       .   A
C911       H912 0.023       .   A
C911       H915 0.023       .   A
H916       C917 0.023       .   A
C919       H920 0.023       .   A
C919       H921 0.023       .   A
C919       H922 0.023       .   A
C851       C852 0.028       .   A
C851       C856 0.028       .   A
C852       C853 0.028       .   A
C852       H859 0.023       .   A
C853       C854 0.029       .   A
C853       C858 0.032       .   A
C854       C855 0.028       .   A
C854       C857 0.032       .   A
C855       C856 0.028       .   A
C855       H861 0.023       .   A
C856       H860 0.023       .   A
C857       C862 0.033       .   A
C857       N865 0.023       .   A
C857       H869 0.023       .   A
C858       C882 0.033       .   A
C858       H886 0.023       .   A
C858       H887 0.023       .   A
C862       N863 0.031       .   A
C862       H867 0.023       .   A
C862       H868 0.023       .   A
N863       N864 0.023       .   A
N863       N866 0.028       .   A
N864       N865 0.028       .   A
N866       N870 0.027       .   A
N870       C871 0.032       .   A
C871       O872 0.030       .   A
C871       C874 0.033       .   A
C871       H881 0.023       .   A
O872       C880 0.030       .   A
C873       C874 0.032       .   A
C873       H876 0.023       .   A
C873       H877 0.023       .   A
C873       C880 0.033       .   A
C874       H875 0.023       .   A
C874       H878 0.023       .   A
H879       C880 0.023       .   A
C882       H883 0.023       .   A
C882       H884 0.023       .   A
C882       H885 0.023       .   A
C814       C815 0.028       .   A
C814       C819 0.028       .   A
C815       C816 0.028       .   A
C815       H822 0.023       .   A
C816       C817 0.029       .   A
C816       C821 0.032       .   A
C817       C818 0.028       .   A
C817       C820 0.032       .   A
C818       C819 0.028       .   A
C818       H824 0.023       .   A
C819       H823 0.023       .   A
C820       C825 0.033       .   A
C820       N828 0.023       .   A
C820       H832 0.023       .   A
C821       C845 0.033       .   A
C821       H849 0.023       .   A
C821       H850 0.023       .   A
C825       N826 0.031       .   A
C825       H830 0.023       .   A
C825       H831 0.023       .   A
N826       N827 0.023       .   A
N826       N829 0.028       .   A
N827       N828 0.028       .   A
N829       N833 0.027       .   A
N833       C834 0.032       .   A
C834       O835 0.030       .   A
C834       C837 0.033       .   A
C834       H844 0.023       .   A
O835       C843 0.030       .   A
C836       C837 0.032       .   A
C836       H839 0.023       .   A
C836       H840 0.023       .   A
C836       C843 0.033       .   A
C837       H838 0.023       .   A
C837       H841 0.023       .   A
H842       C843 0.023       .   A
C845       H846 0.023       .   A
C845       H847 0.023       .   A
C845       H848 0.023       .   A
C777       C778 0.028       .   A
C777       C782 0.028       .   A
C778       C779 0.028       .   A
C778       H785 0.023       .   A
C779       C780 0.029       .   A
C779       C784 0.032       .   A
C780       C781 0.028       .   A
C780       C783 0.032       .   A
C781       C782 0.028       .   A
C781       H787 0.023       .   A
C782       H786 0.023       .   A
C783       C788 0.033       .   A
C783       N791 0.023       .   A
C783       H795 0.023       .   A
C784       C808 0.033       .   A
C784       H812 0.023       .   A
C784       H813 0.023       .   A
C788       N789 0.031       .   A
C788       H793 0.023       .   A
C788       H794 0.023       .   A
N789       N790 0.023       .   A
N789       N792 0.028       .   A
N790       N791 0.028       .   A
N792       N796 0.027       .   A
N796       C797 0.032       .   A
C797       O798 0.030       .   A
C797       C800 0.033       .   A
C797       H807 0.023       .   A
O798       C806 0.030       .   A
C799       C800 0.032       .   A
C799       H802 0.023       .   A
C799       H803 0.023       .   A
C799       C806 0.033       .   A
C800       H801 0.023       .   A
C800       H804 0.023       .   A
H805       C806 0.023       .   A
C808       H809 0.023       .   A
C808       H810 0.023       .   A
C808       H811 0.023       .   A
C740       C741 0.028       .   A
C740       C745 0.028       .   A
C741       C742 0.028       .   A
C741       H748 0.023       .   A
C742       C743 0.029       .   A
C742       C747 0.032       .   A
C743       C744 0.028       .   A
C743       C746 0.032       .   A
C744       C745 0.028       .   A
C744       H750 0.023       .   A
C745       H749 0.023       .   A
C746       C751 0.033       .   A
C746       N754 0.023       .   A
C746       H758 0.023       .   A
C747       C771 0.033       .   A
C747       H775 0.023       .   A
C747       H776 0.023       .   A
C751       N752 0.031       .   A
C751       H756 0.023       .   A
C751       H757 0.023       .   A
N752       N753 0.023       .   A
N752       N755 0.028       .   A
N753       N754 0.028       .   A
N755       N759 0.027       .   A
N759       C760 0.032       .   A
C760       O761 0.030       .   A
C760       C763 0.033       .   A
C760       H770 0.023       .   A
O761       C769 0.030       .   A
C762       C763 0.032       .   A
C762       H765 0.023       .   A
C762       H766 0.023       .   A
C762       C769 0.033       .   A
C763       H764 0.023       .   A
C763       H767 0.023       .   A
H768       C769 0.023       .   A
C771       H772 0.023       .   A
C771       H773 0.023       .   A
C771       H774 0.023       .   A
C703       C704 0.028       .   A
C703       C708 0.028       .   A
C704       C705 0.028       .   A
C704       H711 0.023       .   A
C705       C706 0.029       .   A
C705       C710 0.032       .   A
C706       C707 0.028       .   A
C706       C709 0.032       .   A
C707       C708 0.028       .   A
C707       H713 0.023       .   A
C708       H712 0.023       .   A
C709       C714 0.033       .   A
C709       N717 0.023       .   A
C709       H721 0.023       .   A
C710       C734 0.033       .   A
C710       H738 0.023       .   A
C710       H739 0.023       .   A
C714       N715 0.031       .   A
C714       H719 0.023       .   A
C714       H720 0.023       .   A
N715       N716 0.023       .   A
N715       N718 0.028       .   A
N716       N717 0.028       .   A
N718       N722 0.027       .   A
N722       C723 0.032       .   A
C723       O724 0.030       .   A
C723       C726 0.033       .   A
C723       H733 0.023       .   A
O724       C732 0.030       .   A
C725       C726 0.032       .   A
C725       H728 0.023       .   A
C725       H729 0.023       .   A
C725       C732 0.033       .   A
C726       H727 0.023       .   A
C726       H730 0.023       .   A
H731       C732 0.023       .   A
C734       H735 0.023       .   A
C734       H736 0.023       .   A
C734       H737 0.023       .   A
C666       C667 0.028       .   A
C666       C671 0.028       .   A
C667       C668 0.028       .   A
C667       H674 0.023       .   A
C668       C669 0.029       .   A
C668       C673 0.032       .   A
C669       C670 0.028       .   A
C669       C672 0.032       .   A
C670       C671 0.028       .   A
C670       H676 0.023       .   A
C671       H675 0.023       .   A
C672       C677 0.033       .   A
C672       N680 0.023       .   A
C672       H684 0.023       .   A
C673       C697 0.033       .   A
C673       H701 0.023       .   A
C673       H702 0.023       .   A
C677       N678 0.031       .   A
C677       H682 0.023       .   A
C677       H683 0.023       .   A
N678       N679 0.023       .   A
N678       N681 0.028       .   A
N679       N680 0.028       .   A
N681       N685 0.027       .   A
N685       C686 0.032       .   A
C686       O687 0.030       .   A
C686       C689 0.033       .   A
C686       H696 0.023       .   A
O687       C695 0.030       .   A
C688       C689 0.032       .   A
C688       H691 0.023       .   A
C688       H692 0.023       .   A
C688       C695 0.033       .   A
C689       H690 0.023       .   A
C689       H693 0.023       .   A
H694       C695 0.023       .   A
C697       H698 0.023       .   A
C697       H699 0.023       .   A
C697       H700 0.023       .   A
C629       C630 0.028       .   A
C629       C634 0.028       .   A
C630       C631 0.028       .   A
C630       H637 0.023       .   A
C631       C632 0.029       .   A
C631       C636 0.032       .   A
C632       C633 0.028       .   A
C632       C635 0.032       .   A
C633       C634 0.028       .   A
C633       H639 0.023       .   A
C634       H638 0.023       .   A
C635       C640 0.033       .   A
C635       N643 0.023       .   A
C635       H647 0.023       .   A
C636       C660 0.033       .   A
C636       H664 0.023       .   A
C636       H665 0.023       .   A
C640       N641 0.031       .   A
C640       H645 0.023       .   A
C640       H646 0.023       .   A
N641       N642 0.023       .   A
N641       N644 0.028       .   A
N642       N643 0.028       .   A
N644       N648 0.027       .   A
N648       C649 0.032       .   A
C649       O650 0.030       .   A
C649       C652 0.033       .   A
C649       H659 0.023       .   A
O650       C658 0.030       .   A
C651       C652 0.032       .   A
C651       H654 0.023       .   A
C651       H655 0.023       .   A
C651       C658 0.033       .   A
C652       H653 0.023       .   A
C652       H656 0.023       .   A
H657       C658 0.023       .   A
C660       H661 0.023       .   A
C660       H662 0.023       .   A
C660       H663 0.023       .   A
C592       C593 0.028       .   A
C592       C597 0.028       .   A
C593       C594 0.028       .   A
C593       H600 0.023       .   A
C594       C595 0.029       .   A
C594       C599 0.032       .   A
C595       C596 0.028       .   A
C595       C598 0.032       .   A
C596       C597 0.028       .   A
C596       H602 0.023       .   A
C597       H601 0.023       .   A
C598       C603 0.033       .   A
C598       N606 0.023       .   A
C598       H610 0.023       .   A
C599       C623 0.033       .   A
C599       H627 0.023       .   A
C599       H628 0.023       .   A
C603       N604 0.031       .   A
C603       H608 0.023       .   A
C603       H609 0.023       .   A
N604       N605 0.023       .   A
N604       N607 0.028       .   A
N605       N606 0.028       .   A
N607       N611 0.027       .   A
N611       C612 0.032       .   A
C612       O613 0.030       .   A
C612       C615 0.033       .   A
C612       H622 0.023       .   A
O613       C621 0.030       .   A
C614       C615 0.032       .   A
C614       H617 0.023       .   A
C614       H618 0.023       .   A
C614       C621 0.033       .   A
C615       H616 0.023       .   A
C615       H619 0.023       .   A
H620       C621 0.023       .   A
C623       H624 0.023       .   A
C623       H625 0.023       .   A
C623       H626 0.023       .   A
C555       C556 0.028       .   A
C555       C560 0.028       .   A
C556       C557 0.028       .   A
C556       H563 0.023       .   A
C557       C558 0.029       .   A
C557       C562 0.032       .   A
C558       C559 0.028       .   A
C558       C561 0.032       .   A
C559       C560 0.028       .   A
C559       H565 0.023       .   A
C560       H564 0.023       .   A
C561       C566 0.033       .   A
C561       N569 0.023       .   A
C561       H573 0.023       .   A
C562       C586 0.033       .   A
C562       H590 0.023       .   A
C562       H591 0.023       .   A
C566       N567 0.031       .   A
C566       H571 0.023       .   A
C566       H572 0.023       .   A
N567       N568 0.023       .   A
N567       N570 0.028       .   A
N568       N569 0.028       .   A
N570       N574 0.027       .   A
N574       C575 0.032       .   A
C575       O576 0.030       .   A
C575       C578 0.033       .   A
C575       H585 0.023       .   A
O576       C584 0.030       .   A
C577       C578 0.032       .   A
C577       H580 0.023       .   A
C577       H581 0.023       .   A
C577       C584 0.033       .   A
C578       H579 0.023       .   A
C578       H582 0.023       .   A
H583       C584 0.023       .   A
C586       H587 0.023       .   A
C586       H588 0.023       .   A
C586       H589 0.023       .   A
C518       C519 0.028       .   A
C518       C523 0.028       .   A
C519       C520 0.028       .   A
C519       H526 0.023       .   A
C520       C521 0.029       .   A
C520       C525 0.032       .   A
C521       C522 0.028       .   A
C521       C524 0.032       .   A
C522       C523 0.028       .   A
C522       H528 0.023       .   A
C523       H527 0.023       .   A
C524       C529 0.033       .   A
C524       N532 0.023       .   A
C524       H536 0.023       .   A
C525       C549 0.033       .   A
C525       H553 0.023       .   A
C525       H554 0.023       .   A
C529       N530 0.031       .   A
C529       H534 0.023       .   A
C529       H535 0.023       .   A
N530       N531 0.023       .   A
N530       N533 0.028       .   A
N531       N532 0.028       .   A
N533       N537 0.027       .   A
N537       C538 0.032       .   A
C538       O539 0.030       .   A
C538       C541 0.033       .   A
C538       H548 0.023       .   A
O539       C547 0.030       .   A
C540       C541 0.032       .   A
C540       H543 0.023       .   A
C540       H544 0.023       .   A
C540       C547 0.033       .   A
C541       H542 0.023       .   A
C541       H545 0.023       .   A
H546       C547 0.023       .   A
C549       H550 0.023       .   A
C549       H551 0.023       .   A
C549       H552 0.023       .   A
C481       C482 0.028       .   A
C481       C486 0.028       .   A
C482       C483 0.028       .   A
C482       H489 0.023       .   A
C483       C484 0.029       .   A
C483       C488 0.032       .   A
C484       C485 0.028       .   A
C484       C487 0.032       .   A
C485       C486 0.028       .   A
C485       H491 0.023       .   A
C486       H490 0.023       .   A
C487       C492 0.033       .   A
C487       N495 0.023       .   A
C487       H499 0.023       .   A
C488       C512 0.033       .   A
C488       H516 0.023       .   A
C488       H517 0.023       .   A
C492       N493 0.031       .   A
C492       H497 0.023       .   A
C492       H498 0.023       .   A
N493       N494 0.023       .   A
N493       N496 0.028       .   A
N494       N495 0.028       .   A
N496       N500 0.027       .   A
N500       C501 0.032       .   A
C501       O502 0.030       .   A
C501       C504 0.033       .   A
C501       H511 0.023       .   A
O502       C510 0.030       .   A
C503       C504 0.032       .   A
C503       H506 0.023       .   A
C503       H507 0.023       .   A
C503       C510 0.033       .   A
C504       H505 0.023       .   A
C504       H508 0.023       .   A
H509       C510 0.023       .   A
C512       H513 0.023       .   A
C512       H514 0.023       .   A
C512       H515 0.023       .   A
C444       C445 0.028       .   A
C444       C449 0.028       .   A
C445       C446 0.028       .   A
C445       H452 0.023       .   A
C446       C447 0.029       .   A
C446       C451 0.032       .   A
C447       C448 0.028       .   A
C447       C450 0.032       .   A
C448       C449 0.028       .   A
C448       H454 0.023       .   A
C449       H453 0.023       .   A
C450       C455 0.033       .   A
C450       N458 0.023       .   A
C450       H462 0.023       .   A
C451       C475 0.033       .   A
C451       H479 0.023       .   A
C451       H480 0.023       .   A
C455       N456 0.031       .   A
C455       H460 0.023       .   A
C455       H461 0.023       .   A
N456       N457 0.023       .   A
N456       N459 0.028       .   A
N457       N458 0.028       .   A
N459       N463 0.027       .   A
N463       C464 0.032       .   A
C464       O465 0.030       .   A
C464       C467 0.033       .   A
C464       H474 0.023       .   A
O465       C473 0.030       .   A
C466       C467 0.032       .   A
C466       H469 0.023       .   A
C466       H470 0.023       .   A
C466       C473 0.033       .   A
C467       H468 0.023       .   A
C467       H471 0.023       .   A
H472       C473 0.023       .   A
C475       H476 0.023       .   A
C475       H477 0.023       .   A
C475       H478 0.023       .   A
C407       C408 0.028       .   A
C407       C412 0.028       .   A
C408       C409 0.028       .   A
C408       H415 0.023       .   A
C409       C410 0.029       .   A
C409       C414 0.032       .   A
C410       C411 0.028       .   A
C410       C413 0.032       .   A
C411       C412 0.028       .   A
C411       H417 0.023       .   A
C412       H416 0.023       .   A
C413       C418 0.033       .   A
C413       N421 0.023       .   A
C413       H425 0.023       .   A
C414       C438 0.033       .   A
C414       H442 0.023       .   A
C414       H443 0.023       .   A
C418       N419 0.031       .   A
C418       H423 0.023       .   A
C418       H424 0.023       .   A
N419       N420 0.023       .   A
N419       N422 0.028       .   A
N420       N421 0.028       .   A
N422       N426 0.027       .   A
N426       C427 0.032       .   A
C427       O428 0.030       .   A
C427       C430 0.033       .   A
C427       H437 0.023       .   A
O428       C436 0.030       .   A
C429       C430 0.032       .   A
C429       H432 0.023       .   A
C429       H433 0.023       .   A
C429       C436 0.033       .   A
C430       H431 0.023       .   A
C430       H434 0.023       .   A
H435       C436 0.023       .   A
C438       H439 0.023       .   A
C438       H440 0.023       .   A
C438       H441 0.023       .   A
C370       C371 0.028       .   A
C370       C375 0.028       .   A
C371       C372 0.028       .   A
C371       H378 0.023       .   A
C372       C373 0.029       .   A
C372       C377 0.032       .   A
C373       C374 0.028       .   A
C373       C376 0.032       .   A
C374       C375 0.028       .   A
C374       H380 0.023       .   A
C375       H379 0.023       .   A
C376       C381 0.033       .   A
C376       N384 0.023       .   A
C376       H388 0.023       .   A
C377       C401 0.033       .   A
C377       H405 0.023       .   A
C377       H406 0.023       .   A
C381       N382 0.031       .   A
C381       H386 0.023       .   A
C381       H387 0.023       .   A
N382       N383 0.023       .   A
N382       N385 0.028       .   A
N383       N384 0.028       .   A
N385       N389 0.027       .   A
N389       C390 0.032       .   A
C390       O391 0.030       .   A
C390       C393 0.033       .   A
C390       H400 0.023       .   A
O391       C399 0.030       .   A
C392       C393 0.032       .   A
C392       H395 0.023       .   A
C392       H396 0.023       .   A
C392       C399 0.033       .   A
C393       H394 0.023       .   A
C393       H397 0.023       .   A
H398       C399 0.023       .   A
C401       H402 0.023       .   A
C401       H403 0.023       .   A
C401       H404 0.023       .   A
C333       C334 0.028       .   A
C333       C338 0.028       .   A
C334       C335 0.028       .   A
C334       H341 0.023       .   A
C335       C336 0.029       .   A
C335       C340 0.032       .   A
C336       C337 0.028       .   A
C336       C339 0.032       .   A
C337       C338 0.028       .   A
C337       H343 0.023       .   A
C338       H342 0.023       .   A
C339       C344 0.033       .   A
C339       N347 0.023       .   A
C339       H351 0.023       .   A
C340       C364 0.033       .   A
C340       H368 0.023       .   A
C340       H369 0.023       .   A
C344       N345 0.031       .   A
C344       H349 0.023       .   A
C344       H350 0.023       .   A
N345       N346 0.023       .   A
N345       N348 0.028       .   A
N346       N347 0.028       .   A
N348       N352 0.027       .   A
N352       C353 0.032       .   A
C353       O354 0.030       .   A
C353       C356 0.033       .   A
C353       H363 0.023       .   A
O354       C362 0.030       .   A
C355       C356 0.032       .   A
C355       H358 0.023       .   A
C355       H359 0.023       .   A
C355       C362 0.033       .   A
C356       H357 0.023       .   A
C356       H360 0.023       .   A
H361       C362 0.023       .   A
C364       H365 0.023       .   A
C364       H366 0.023       .   A
C364       H367 0.023       .   A
C296       C297 0.028       .   A
C296       C301 0.028       .   A
C297       C298 0.028       .   A
C297       H304 0.023       .   A
C298       C299 0.029       .   A
C298       C303 0.032       .   A
C299       C300 0.028       .   A
C299       C302 0.032       .   A
C300       C301 0.028       .   A
C300       H306 0.023       .   A
C301       H305 0.023       .   A
C302       C307 0.033       .   A
C302       N310 0.023       .   A
C302       H314 0.023       .   A
C303       C327 0.033       .   A
C303       H331 0.023       .   A
C303       H332 0.023       .   A
C307       N308 0.031       .   A
C307       H312 0.023       .   A
C307       H313 0.023       .   A
N308       N309 0.023       .   A
N308       N311 0.028       .   A
N309       N310 0.028       .   A
N311       N315 0.027       .   A
N315       C316 0.032       .   A
C316       O317 0.030       .   A
C316       C319 0.033       .   A
C316       H326 0.023       .   A
O317       C325 0.030       .   A
C318       C319 0.032       .   A
C318       H321 0.023       .   A
C318       H322 0.023       .   A
C318       C325 0.033       .   A
C319       H320 0.023       .   A
C319       H323 0.023       .   A
H324       C325 0.023       .   A
C327       H328 0.023       .   A
C327       H329 0.023       .   A
C327       H330 0.023       .   A
C259       C260 0.028       .   A
C259       C264 0.028       .   A
C260       C261 0.028       .   A
C260       H267 0.023       .   A
C261       C262 0.029       .   A
C261       C266 0.032       .   A
C262       C263 0.028       .   A
C262       C265 0.032       .   A
C263       C264 0.028       .   A
C263       H269 0.023       .   A
C264       H268 0.023       .   A
C265       C270 0.033       .   A
C265       N273 0.023       .   A
C265       H277 0.023       .   A
C266       C290 0.033       .   A
C266       H294 0.023       .   A
C266       H295 0.023       .   A
C270       N271 0.031       .   A
C270       H275 0.023       .   A
C270       H276 0.023       .   A
N271       N272 0.023       .   A
N271       N274 0.028       .   A
N272       N273 0.028       .   A
N274       N278 0.027       .   A
N278       C279 0.032       .   A
C279       O280 0.030       .   A
C279       C282 0.033       .   A
C279       H289 0.023       .   A
O280       C288 0.030       .   A
C281       C282 0.032       .   A
C281       H284 0.023       .   A
C281       H285 0.023       .   A
C281       C288 0.033       .   A
C282       H283 0.023       .   A
C282       H286 0.023       .   A
H287       C288 0.023       .   A
C290       H291 0.023       .   A
C290       H292 0.023       .   A
C290       H293 0.023       .   A
C222       C223 0.028       .   A
C222       C227 0.028       .   A
C223       C224 0.028       .   A
C223       H230 0.023       .   A
C224       C225 0.029       .   A
C224       C229 0.032       .   A
C225       C226 0.028       .   A
C225       C228 0.032       .   A
C226       C227 0.028       .   A
C226       H232 0.023       .   A
C227       H231 0.023       .   A
C228       C233 0.033       .   A
C228       N236 0.023       .   A
C228       H240 0.023       .   A
C229       C253 0.033       .   A
C229       H257 0.023       .   A
C229       H258 0.023       .   A
C233       N234 0.031       .   A
C233       H238 0.023       .   A
C233       H239 0.023       .   A
N234       N235 0.023       .   A
N234       N237 0.028       .   A
N235       N236 0.028       .   A
N237       N241 0.027       .   A
N241       C242 0.032       .   A
C242       O243 0.030       .   A
C242       C245 0.033       .   A
C242       H252 0.023       .   A
O243       C251 0.030       .   A
C244       C245 0.032       .   A
C244       H247 0.023       .   A
C244       H248 0.023       .   A
C244       C251 0.033       .   A
C245       H246 0.023       .   A
C245       H249 0.023       .   A
H250       C251 0.023       .   A
C253       H254 0.023       .   A
C253       H255 0.023       .   A
C253       H256 0.023       .   A
C185       C186 0.028       .   A
C185       C190 0.028       .   A
C186       C187 0.028       .   A
C186       H193 0.023       .   A
C187       C188 0.029       .   A
C187       C192 0.032       .   A
C188       C189 0.028       .   A
C188       C191 0.032       .   A
C189       C190 0.028       .   A
C189       H195 0.023       .   A
C190       H194 0.023       .   A
C191       C196 0.033       .   A
C191       N199 0.023       .   A
C191       H203 0.023       .   A
C192       C216 0.033       .   A
C192       H220 0.023       .   A
C192       H221 0.023       .   A
C196       N197 0.031       .   A
C196       H201 0.023       .   A
C196       H202 0.023       .   A
N197       N198 0.023       .   A
N197       N200 0.028       .   A
N198       N199 0.028       .   A
N200       N204 0.027       .   A
N204       C205 0.032       .   A
C205       O206 0.030       .   A
C205       C208 0.033       .   A
C205       H215 0.023       .   A
O206       C214 0.030       .   A
C207       C208 0.032       .   A
C207       H210 0.023       .   A
C207       H211 0.023       .   A
C207       C214 0.033       .   A
C208       H209 0.023       .   A
C208       H212 0.023       .   A
H213       C214 0.023       .   A
C216       H217 0.023       .   A
C216       H218 0.023       .   A
C216       H219 0.023       .   A
