data_pcu_v1-6c_Zn_1_Ch_1-54_fer_tobacco
_audit_creation_date              2021-02-03
_audit_creation_method            'tobacco_3.0'
_symmetry_space_group_name_H-M    'P1'
_symmetry_Int_Tables_number       1
_symmetry_cell_setting            triclinic
loop_
_symmetry_equiv_pos_as_xyz
  x,y,z
_cell_length_a                    42.762608782626714
_cell_length_b                    42.762608782626714
_cell_length_c                    42.762608782626714
_cell_angle_alpha                 90.0
_cell_angle_beta                  90.0
_cell_angle_gamma                 90.0
loop_
_atom_site_label
_atom_site_type_symbol
_atom_site_fract_x
_atom_site_fract_y
_atom_site_fract_z
_atom_site_charge
Zn1       Zn   -0.0262191674   -0.0262191674    0.0262191674          1.4972
Zn2       Zn    0.0262191674    0.0262191674    0.0262191674          1.4936
Zn3       Zn    0.0262191674   -0.0262191674   -0.0262191674          1.4911
Zn4       Zn   -0.0262191674    0.0262191674   -0.0262191674          1.4948
O5         O    0.0000000000    0.0000000000    0.0000000000         -2.2899
O6         O   -0.0192691705   -0.0192691705    0.0700752383         -1.1962
O7         O    0.0700752383    0.0192691705    0.0192691705         -1.1944
O8         O    0.0192691705   -0.0700752383   -0.0192691705         -1.1896
O9         O    0.0192691705    0.0192691705    0.0700752383         -1.1963
O10        O   -0.0192691705   -0.0700752383    0.0192691705         -1.1923
O11        O    0.0700752383   -0.0192691705   -0.0192691705         -1.1982
O12        O   -0.0192691705    0.0192691705   -0.0700752383         -1.1921
O13        O    0.0192691705    0.0700752383    0.0192691705         -1.1996
O14        O    0.0192691705   -0.0192691705   -0.0700752383         -1.1935
O15        O   -0.0192691705    0.0700752383   -0.0192691705         -1.1982
O16        O   -0.0700752383    0.0192691705   -0.0192691705         -1.1973
O17        O   -0.0700752383   -0.0192691705    0.0192691705         -1.1952
C18        C   -0.0000000000   -0.0000000000    0.0837834758          0.3227
C19        C    0.0837834758   -0.0000000000   -0.0000000000          0.3276
C20        C   -0.0000000000   -0.0837834758    0.0000000000          0.3172
C21        C    0.0000000000    0.0000000000   -0.0837834758           0.321
C22        C    0.0000000000    0.0837834758   -0.0000000000          0.3323
C23        C   -0.0837834758    0.0000000000    0.0000000000          0.3228
Zn24      Zn    1.0262191674   -0.0262191674    0.5262191674          1.4972
Zn25      Zn    0.9737808326   -0.0262191674    0.4737808326          1.4936
Zn26      Zn    0.9737808326    0.0262191674    0.5262191674          1.4911
Zn27      Zn    1.0262191674    0.0262191674    0.4737808326          1.4948
O28        O    1.0000000000    0.0000000000    0.5000000000         -2.2899
O29        O    1.0192691705   -0.0700752383    0.5192691705         -1.1962
O30        O    0.9299247617   -0.0192691705    0.4807308295         -1.1944
O31        O    0.9807308295    0.0192691705    0.5700752383         -1.1896
O32        O    0.9807308295   -0.0700752383    0.4807308295         -1.1963
O33        O    1.0192691705   -0.0192691705    0.5700752383         -1.1923
O34        O    0.9299247617    0.0192691705    0.5192691705         -1.1982
O35        O    1.0192691705    0.0700752383    0.4807308295         -1.1921
O36        O    0.9807308295   -0.0192691705    0.4299247617         -1.1996
O37        O    0.9807308295    0.0700752383    0.5192691705         -1.1935
O38        O    1.0192691705    0.0192691705    0.4299247617         -1.1982
O39        O    1.0700752383    0.0192691705    0.4807308295         -1.1973
O40        O    1.0700752383   -0.0192691705    0.5192691705         -1.1952
C41        C    1.0000000000   -0.0837834758    0.5000000000          0.3227
C42        C    0.9162165242    0.0000000000    0.5000000000          0.3276
C43        C    1.0000000000    0.0000000000    0.5837834758          0.3172
C44        C    1.0000000000    0.0837834758    0.5000000000           0.321
C45        C    1.0000000000    0.0000000000    0.4162165242          0.3323
C46        C    1.0837834758    0.0000000000    0.5000000000          0.3228
Zn47      Zn    0.9737808326    0.4737808326   -0.0262191674          1.4972
Zn48      Zn    1.0262191674    0.4737808326    0.0262191674          1.4936
Zn49      Zn    1.0262191674    0.5262191674   -0.0262191674          1.4911
Zn50      Zn    0.9737808326    0.5262191674    0.0262191674          1.4948
O51        O    1.0000000000    0.5000000000    0.0000000000         -2.2899
O52        O    0.9807308295    0.4299247617   -0.0192691705         -1.1962
O53        O    1.0700752383    0.4807308295    0.0192691705         -1.1944
O54        O    1.0192691705    0.5192691705   -0.0700752383         -1.1896
O55        O    1.0192691705    0.4299247617    0.0192691705         -1.1963
O56        O    0.9807308295    0.4807308295   -0.0700752383         -1.1923
O57        O    1.0700752383    0.5192691705   -0.0192691705         -1.1982
O58        O    0.9807308295    0.5700752383    0.0192691705         -1.1921
O59        O    1.0192691705    0.4807308295    0.0700752383         -1.1996
O60        O    1.0192691705    0.5700752383   -0.0192691705         -1.1935
O61        O    0.9807308295    0.5192691705    0.0700752383         -1.1982
O62        O    0.9299247617    0.5192691705    0.0192691705         -1.1973
O63        O    0.9299247617    0.4807308295   -0.0192691705         -1.1952
C64        C    1.0000000000    0.4162165242    0.0000000000          0.3227
C65        C    1.0837834758    0.5000000000    0.0000000000          0.3276
C66        C    1.0000000000    0.5000000000   -0.0837834758          0.3172
C67        C    1.0000000000    0.5837834758    0.0000000000           0.321
C68        C    1.0000000000    0.5000000000    0.0837834758          0.3323
C69        C    0.9162165242    0.5000000000    0.0000000000          0.3228
Zn70      Zn    1.0262191674    0.4737808326    0.5262191674          1.4972
Zn71      Zn    0.9737808326    0.4737808326    0.4737808326          1.4936
Zn72      Zn    0.9737808326    0.5262191674    0.5262191674          1.4911
Zn73      Zn    1.0262191674    0.5262191674    0.4737808326          1.4948
O74        O    1.0000000000    0.5000000000    0.5000000000         -2.2899
O75        O    1.0192691705    0.4299247617    0.5192691705         -1.1962
O76        O    0.9299247617    0.4807308295    0.4807308295         -1.1944
O77        O    0.9807308295    0.5192691705    0.5700752383         -1.1896
O78        O    0.9807308295    0.4299247617    0.4807308295         -1.1963
O79        O    1.0192691705    0.4807308295    0.5700752383         -1.1923
O80        O    0.9299247617    0.5192691705    0.5192691705         -1.1982
O81        O    1.0192691705    0.5700752383    0.4807308295         -1.1921
O82        O    0.9807308295    0.4807308295    0.4299247617         -1.1996
O83        O    0.9807308295    0.5700752383    0.5192691705         -1.1935
O84        O    1.0192691705    0.5192691705    0.4299247617         -1.1982
O85        O    1.0700752383    0.5192691705    0.4807308295         -1.1973
O86        O    1.0700752383    0.4807308295    0.5192691705         -1.1952
C87        C    1.0000000000    0.4162165242    0.5000000000          0.3227
C88        C    0.9162165242    0.5000000000    0.5000000000          0.3276
C89        C    1.0000000000    0.5000000000    0.5837834758          0.3172
C90        C    1.0000000000    0.5837834758    0.5000000000           0.321
C91        C    1.0000000000    0.5000000000    0.4162165242          0.3323
C92        C    1.0837834758    0.5000000000    0.5000000000          0.3228
Zn93      Zn    0.4737808326    0.9737808326   -0.0262191674          1.4972
Zn94      Zn    0.4737808326    1.0262191674    0.0262191674          1.4936
Zn95      Zn    0.5262191674    0.9737808326    0.0262191674          1.4911
Zn96      Zn    0.5262191674    1.0262191674   -0.0262191674          1.4948
O97        O    0.5000000000    1.0000000000    0.0000000000         -2.2899
O98        O    0.4299247617    0.9807308295   -0.0192691705         -1.1962
O99        O    0.4807308295    1.0192691705    0.0700752383         -1.1944
O100       O    0.5192691705    0.9299247617    0.0192691705         -1.1896
O101       O    0.4299247617    1.0192691705    0.0192691705         -1.1963
O102       O    0.4807308295    0.9299247617   -0.0192691705         -1.1923
O103       O    0.5192691705    0.9807308295    0.0700752383         -1.1982
O104       O    0.5700752383    1.0192691705   -0.0192691705         -1.1921
O105       O    0.4807308295    1.0700752383    0.0192691705         -1.1996
O106       O    0.5700752383    0.9807308295    0.0192691705         -1.1935
O107       O    0.5192691705    1.0700752383   -0.0192691705         -1.1982
O108       O    0.5192691705    1.0192691705   -0.0700752383         -1.1973
O109       O    0.4807308295    0.9807308295   -0.0700752383         -1.1952
C110       C    0.4162165242    1.0000000000    0.0000000000          0.3227
C111       C    0.5000000000    1.0000000000    0.0837834758          0.3276
C112       C    0.5000000000    0.9162165242    0.0000000000          0.3172
C113       C    0.5837834758    1.0000000000    0.0000000000           0.321
C114       C    0.5000000000    1.0837834758    0.0000000000          0.3323
C115       C    0.5000000000    1.0000000000   -0.0837834758          0.3228
Zn116     Zn    0.5262191674    0.9737808326    0.5262191674          1.4972
Zn117     Zn    0.4737808326    0.9737808326    0.4737808326          1.4936
Zn118     Zn    0.4737808326    1.0262191674    0.5262191674          1.4911
Zn119     Zn    0.5262191674    1.0262191674    0.4737808326          1.4948
O120       O    0.5000000000    1.0000000000    0.5000000000         -2.2899
O121       O    0.5192691705    0.9299247617    0.5192691705         -1.1962
O122       O    0.4299247617    0.9807308295    0.4807308295         -1.1944
O123       O    0.4807308295    1.0192691705    0.5700752383         -1.1896
O124       O    0.4807308295    0.9299247617    0.4807308295         -1.1963
O125       O    0.5192691705    0.9807308295    0.5700752383         -1.1923
O126       O    0.4299247617    1.0192691705    0.5192691705         -1.1982
O127       O    0.5192691705    1.0700752383    0.4807308295         -1.1921
O128       O    0.4807308295    0.9807308295    0.4299247617         -1.1996
O129       O    0.4807308295    1.0700752383    0.5192691705         -1.1935
O130       O    0.5192691705    1.0192691705    0.4299247617         -1.1982
O131       O    0.5700752383    1.0192691705    0.4807308295         -1.1973
O132       O    0.5700752383    0.9807308295    0.5192691705         -1.1952
C133       C    0.5000000000    0.9162165242    0.5000000000          0.3227
C134       C    0.4162165242    1.0000000000    0.5000000000          0.3276
C135       C    0.5000000000    1.0000000000    0.5837834758          0.3172
C136       C    0.5000000000    1.0837834758    0.5000000000           0.321
C137       C    0.5000000000    1.0000000000    0.4162165242          0.3323
C138       C    0.5837834758    1.0000000000    0.5000000000          0.3228
Zn139     Zn    0.4737808326    0.5262191674   -0.0262191674          1.4972
Zn140     Zn    0.4737808326    0.4737808326    0.0262191674          1.4936
Zn141     Zn    0.5262191674    0.4737808326   -0.0262191674          1.4911
Zn142     Zn    0.5262191674    0.5262191674    0.0262191674          1.4948
O143       O    0.5000000000    0.5000000000    0.0000000000         -2.2899
O144       O    0.4299247617    0.5192691705   -0.0192691705         -1.1962
O145       O    0.4807308295    0.4299247617    0.0192691705         -1.1944
O146       O    0.5192691705    0.4807308295   -0.0700752383         -1.1896
O147       O    0.4299247617    0.4807308295    0.0192691705         -1.1963
O148       O    0.4807308295    0.5192691705   -0.0700752383         -1.1923
O149       O    0.5192691705    0.4299247617   -0.0192691705         -1.1982
O150       O    0.5700752383    0.5192691705    0.0192691705         -1.1921
O151       O    0.4807308295    0.4807308295    0.0700752383         -1.1996
O152       O    0.5700752383    0.4807308295   -0.0192691705         -1.1935
O153       O    0.5192691705    0.5192691705    0.0700752383         -1.1982
O154       O    0.5192691705    0.5700752383    0.0192691705         -1.1973
O155       O    0.4807308295    0.5700752383   -0.0192691705         -1.1952
C156       C    0.4162165242    0.5000000000    0.0000000000          0.3227
C157       C    0.5000000000    0.4162165242    0.0000000000          0.3276
C158       C    0.5000000000    0.5000000000   -0.0837834758          0.3172
C159       C    0.5837834758    0.5000000000    0.0000000000           0.321
C160       C    0.5000000000    0.5000000000    0.0837834758          0.3323
C161       C    0.5000000000    0.5837834758    0.0000000000          0.3228
Zn162     Zn    0.4737808326    0.5262191674    0.4737808326          1.4972
Zn163     Zn    0.4737808326    0.4737808326    0.5262191674          1.4936
Zn164     Zn    0.5262191674    0.4737808326    0.4737808326          1.4911
Zn165     Zn    0.5262191674    0.5262191674    0.5262191674          1.4948
O166       O    0.5000000000    0.5000000000    0.5000000000         -2.2899
O167       O    0.4299247617    0.5192691705    0.4807308295         -1.1962
O168       O    0.4807308295    0.4299247617    0.5192691705         -1.1944
O169       O    0.5192691705    0.4807308295    0.4299247617         -1.1896
O170       O    0.4299247617    0.4807308295    0.5192691705         -1.1963
O171       O    0.4807308295    0.5192691705    0.4299247617         -1.1923
O172       O    0.5192691705    0.4299247617    0.4807308295         -1.1982
O173       O    0.5700752383    0.5192691705    0.5192691705         -1.1921
O174       O    0.4807308295    0.4807308295    0.5700752383         -1.1996
O175       O    0.5700752383    0.4807308295    0.4807308295         -1.1935
O176       O    0.5192691705    0.5192691705    0.5700752383         -1.1982
O177       O    0.5192691705    0.5700752383    0.5192691705         -1.1973
O178       O    0.4807308295    0.5700752383    0.4807308295         -1.1952
C179       C    0.4162165242    0.5000000000    0.5000000000          0.3227
C180       C    0.5000000000    0.4162165242    0.5000000000          0.3276
C181       C    0.5000000000    0.5000000000    0.4162165242          0.3172
C182       C    0.5837834758    0.5000000000    0.5000000000           0.321
C183       C    0.5000000000    0.5000000000    0.5837834758          0.3323
C184       C    0.5000000000    0.5837834758    0.5000000000          0.3228
C852       C    0.5000000000    0.5000000000   -0.1197962460          0.5463
C853       C    0.4932232150    0.5263313074   -0.1358188259          0.5409
C854       C    0.4938964914    0.5287745315   -0.1673818678          0.5412
C855       C    0.5014008478    0.5045791345   -0.1865596800           0.547
C856       C    0.5085045917    0.4780929839   -0.1704474225         -0.4473
C857       C    0.5076887863    0.4758674700   -0.1386018073         -0.4477
C858       C    0.5028414693    0.5101420883   -0.2240839581          0.5479
Cl859     Cl    0.4851895631    0.5656275564   -0.1816667467          0.5343
H860       H    0.4869933831    0.5474050778   -0.1229600321           0.536
H861       H    0.5138429793    0.4536789311   -0.1277391542         -0.4428
Br862     Br    0.5213859582    0.4418120944   -0.1919719577         -0.4373
C863       C    0.4899679994    0.4884652617   -0.2513811832          0.5375
C864       C    0.5108056239    0.4947914640   -0.2817913627         -0.4462
N865       N    0.5295100155    0.5219559001   -0.2710242061         -0.4312
N866       N    0.5339874483    0.5177789576   -0.2369800209         -0.4274
C867       C    0.4946565450    0.5001051405   -0.3158386275          0.5408
H868       H    0.5420849918    0.5386845489   -0.2288747669         -0.4209
H869       H    0.5160797048    0.5416089284   -0.2724685967         -0.4418
H870       H    0.4912101956    0.4637455570   -0.2453759524          0.5385
H871       H    0.5268143590    0.4749544442   -0.2839733922         -0.4335
H872       H    0.4654615546    0.4940479485   -0.2559730089           0.518
H873       H    0.4890100412    0.5311572471   -0.2282577152          0.5369
C874       C    0.5129896087    0.4908741163   -0.3477385665         -0.4449
N875       N    0.5000000000    0.5000000000   -0.3802037540          0.5446
N876       N    0.4835511284    0.5134244071   -0.3654873074          0.5317
N877       N    0.4801915923    0.5108932047   -0.3342883234          0.5292
H878       H    0.5164125565    0.4654725339   -0.3478748086         -0.4422
H879       H    0.5365987988    0.5008254474   -0.3461502499         -0.4261
H880       H    0.4717371671    0.4887398444   -0.3156530835          0.5226
C823       C    0.5000000000    0.5000000000    0.1197962460          0.5463
C824       C    0.4736601100    0.5067433493    0.1358188259          0.5409
C825       C    0.4712177427    0.5060669715    0.1673818678          0.5412
C826       C    0.4954226477    0.4985933396    0.1865596800           0.547
C827       C    0.5219177958    0.4915232283    0.1704474225         -0.4473
C828       C    0.5241422722    0.4923418585    0.1386018073         -0.4477
C829       C    0.4898615274    0.4971456566    0.2240839581          0.5479
Cl830     Cl    0.4343536932    0.5147271042    0.1816667467          0.5343
H831       H    0.4525784472    0.5129464209    0.1229600321           0.536
H832       H    0.5463386066    0.4862158411    0.1277391542         -0.4428
Br833     Br    0.5582150103    0.4786879344    0.1919719577         -0.4373
C834       C    0.5115219924    0.5100466370    0.2513811832          0.5375
C835       C    0.5052222507    0.4892009975    0.2817913627         -0.4462
N836       N    0.4780815835    0.4704621331    0.2710242061         -0.4312
N837       N    0.4822642072    0.4659900069    0.2369800209         -0.4274
C838       C    0.4998880755    0.5053433172    0.3158386275          0.5408
H839       H    0.4613689134    0.4578659282    0.2288747669         -0.4209
H840       H    0.4584115199    0.4838674815    0.2724685967         -0.4418
H841       H    0.5362432543    0.5088358260    0.2453759524          0.5385
H842       H    0.5250795792    0.4732174604    0.2839733922         -0.4335
H843       H    0.5059081967    0.5345459743    0.2559730089           0.518
H844       H    0.4688288252    0.5109503927    0.2282577152          0.5369
C845       C    0.5091423679    0.4870219880    0.3477385665         -0.4449
N846       N    0.5000000000    0.5000000000    0.3802037540          0.5446
N847       N    0.4865547202    0.5164318147    0.3654873074          0.5317
N848       N    0.4890816553    0.5197945617    0.3342883234          0.5292
H849       H    0.5345482757    0.4836312928    0.3478748086         -0.4422
H850       H    0.4992210191    0.4634001827    0.3461502499         -0.4261
H851       H    0.5112242640    0.5282771060    0.3156530835          0.5226
C794       C    0.5000000000    0.8802037540    0.5000000000          0.5463
C795       C    0.4866606570    0.8641811741    0.4763077123          0.5409
C796       C    0.4866809473    0.8326181322    0.4737734998          0.5412
C797       C    0.5001723064    0.8134403200    0.4952144846           0.547
C798       C    0.5138674845    0.8295525775    0.5189720401         -0.4473
C799       C    0.5136533323    0.8613981927    0.5213326734         -0.4477
C800       C    0.5001292750    0.7759160419    0.4894681820          0.5479
Cl801     Cl    0.4687628113    0.8183332533    0.4404133971          0.5343
H802       H    0.4752058838    0.8770399679    0.4575539721           0.536
H803       H    0.5253225686    0.8722608458    0.5411829700         -0.4428
Br804     Br    0.5356712243    0.8080280423    0.5507026166         -0.4373
C805       C    0.4932827321    0.7486188168    0.5137320623          0.5375
C806       C    0.5117834597    0.7182086373    0.5022450911         -0.4462
N807       N    0.5228481430    0.7289757939    0.4711752723         -0.4312
N808       N    0.5282514618    0.7630199791    0.4740559664         -0.4274
C809       C    0.4948102415    0.6841613725    0.5012767039          0.5408
H810       H    0.5306826221    0.7711252331    0.4517691223         -0.4209
H811       H    0.5048030120    0.7275314033    0.4556514836         -0.4418
H812       H    0.5008590748    0.7546240476    0.5372948695          0.5385
H813       H    0.5323672227    0.7160266078    0.5172815684         -0.4335
H814       H    0.4681655634    0.7440269911    0.5146594602           0.518
H815       H    0.4813452532    0.7717422848    0.4727318196          0.5369
C816       C    0.5149039784    0.6522614335    0.5054665449         -0.4449
N817       N    0.5000000000    0.6197962460    0.5000000000          0.5446
N818       N    0.4806450583    0.6345126926    0.4912726683          0.5317
N819       N    0.4780521015    0.6657116766    0.4945847738          0.5292
H820       H    0.5247631617    0.6521251914    0.5291256545         -0.4422
H821       H    0.5351474223    0.6538497501    0.4897622196         -0.4261
H822       H    0.4755979845    0.6843469165    0.5181692176          0.5226
C765       C    0.5000000000    1.1197962460    0.5000000000          0.5463
C766       C    0.4754504271    1.1358188259    0.4883132111          0.5409
C767       C    0.4729235436    1.1673818678    0.4885068723          0.5412
C768       C    0.4952374936    1.1865596800    0.5004993797           0.547
C769       C    0.5198765315    1.1704474225    0.5125367032         -0.4473
C770       C    0.5222169765    1.1386018073    0.5121615127         -0.4477
C771       C    0.4895017164    1.2240839581    0.5008496738          0.5479
Cl772     Cl    0.4384154874    1.1816667467    0.4729136011          0.5343
H773       H    0.4559567877    1.1229600321    0.4781686250           0.536
H774       H    0.5428192776    1.1277391542    0.5224450209         -0.4428
Br775     Br    0.5530247767    1.1919719577    0.5321179797         -0.4373
C776       C    0.5132402037    1.2513811832    0.4923587808          0.5375
C777       C    0.5030461811    1.2817913627    0.5116022040         -0.4462
N778       N    0.4728063608    1.2710242061    0.5247670860         -0.4312
N779       N    0.4760500561    1.2369800209    0.5299606102         -0.4274
C780       C    0.5009185712    1.3158386275    0.4947350410          0.5408
H781       H    0.4539818221    1.2288747669    0.5339111805         -0.4209
H782       H    0.4560841173    1.2724685967    0.5078265623         -0.4418
H783       H    0.5372662323    1.2453759524    0.4983049392          0.5385
H784       H    0.5194559765    1.2839733922    0.5311087559         -0.4335
H785       H    0.5124466369    1.2559730089    0.4672370276           0.518
H786       H    0.4715191788    1.2282577152    0.4832549689          0.5369
C787       C    0.5064736233    1.3477385665    0.5144949608         -0.4449
N788       N    0.5000000000    1.3802037540    0.5000000000          0.5446
N789       N    0.4899686502    1.3654873074    0.4812876483          0.5317
N790       N    0.4930955532    1.3342883234    0.4784741193          0.5292
H791       H    0.5307519455    1.3478748086    0.5227120184         -0.4422
H792       H    0.4921913885    1.3461502499    0.5357656123         -0.4261
H793       H    0.5164567743    1.3156530835    0.4744118502          0.5226
C736       C    0.5000000000    0.8802037540    0.0000000000          0.5463
C737       C    0.5258394683    0.8641811741    0.0084607591          0.5409
C738       C    0.5275362409    0.8326181322    0.0103432063          0.5412
C739       C    0.5031053183    0.8134403200    0.0036452498           0.547
C740       C    0.4769593700    0.8295525775   -0.0046232893         -0.4473
C741       C    0.4755227965    0.8613981927   -0.0065086824         -0.4477
C742       C    0.5070183920    0.7759160419    0.0078535392          0.5479
Cl743     Cl    0.5632822651    0.8183332533    0.0228403180          0.5343
H744       H    0.5469535010    0.8770399679    0.0145527395           0.536
H745       H    0.4535099482    0.8722608458   -0.0132644103         -0.4428
Br746     Br    0.4394487443    0.8080280423   -0.0132942469         -0.4373
C747       C    0.4956780240    0.7486188168   -0.0146632789          0.5375
C748       C    0.4897943647    0.7182086373    0.0063035994         -0.4462
N749       N    0.5026213262    0.7289757939    0.0366882980         -0.4312
N750       N    0.4966911234    0.7630199791    0.0382137320         -0.4274
C751       C    0.5029646063    0.6841613725   -0.0044468726          0.5408
H752       H    0.5099520288    0.7711252331    0.0562903010         -0.4209
H753       H    0.5264134529    0.7275314033    0.0359470351         -0.4418
H754       H    0.4741756814    0.7546240476   -0.0269211788          0.5385
H755       H    0.4644593913    0.7160266078    0.0091189282         -0.4335
H756       H    0.5135731507    0.7440269911   -0.0323125473           0.518
H757       H    0.5321744142    0.7717422848    0.0075073506          0.5369
C758       C    0.4853173450    0.6522614335    0.0060358371         -0.4449
N759       N    0.5000000000    0.6197962460    0.0000000000          0.5446
N760       N    0.5201673192    0.6345126926   -0.0066377196          0.5317
N761       N    0.5198422170    0.6657116766   -0.0108314980          0.5292
H762       H    0.4620665757    0.6521251914   -0.0047511313         -0.4422
H763       H    0.4809972104    0.6538497501    0.0312897336         -0.4261
H764       H    0.5057217758    0.6843469165   -0.0298804302          0.5226
C707       C    0.5000000000    1.3802037540    0.0000000000          0.5463
C708       C    0.4743713141    1.3641811741    0.0090792635          0.5409
C709       C    0.4718781141    1.3326181322    0.0086247325          0.5412
C710       C    0.4953149065    1.3134403200   -0.0009903265           0.547
C711       C    0.5210689087    1.3295525775   -0.0104089634         -0.4473
C712       C    0.5233578588    1.3613981927   -0.0097932053         -0.4477
C713       C    0.4896463318    1.2759160419   -0.0019332506          0.5479
Cl714     Cl    0.4359396744    1.3183332533    0.0205572344          0.5343
H715       H    0.4539311796    1.3770399679    0.0171486813           0.536
H716       H    0.5449150828    1.3722608458   -0.0178858835         -0.4428
Br717     Br    0.5560682207    1.3080280423   -0.0264489356         -0.4373
C718       C    0.5123768721    1.2486188168    0.0089724167          0.5375
C719       C    0.5042323490    1.2182086373   -0.0112239734         -0.4462
N720       N    0.4755199549    1.2289757939   -0.0274523215         -0.4312
N721       N    0.4792844908    1.2630199791   -0.0322816613         -0.4274
C722       C    0.5003679075    1.1841613725    0.0053318112          0.5408
H723       H    0.4577446003    1.2711252331   -0.0384983384         -0.4209
H724       H    0.4571318861    1.2275314033   -0.0123363137         -0.4418
H725       H    0.5368898138    1.2546240476    0.0055485977          0.5385
H726       H    0.5225756230    1.2160266078   -0.0289245737         -0.4335
H727       H    0.5089836951    1.2440269911    0.0338766048           0.518
H728       H    0.4699369507    1.2717422848    0.0137027847          0.5369
C729       C    0.5079411661    1.1522614335   -0.0137458927         -0.4449
N730       N    0.5000000000    1.1197962460    0.0000000000          0.5446
N731       N    0.4880831350    1.1345126926    0.0175718074          0.5317
N732       N    0.4909015720    1.1657116766    0.0206942874          0.5292
H733       H    0.5329404226    1.1521251914   -0.0194022290         -0.4422
H734       H    0.4959405742    1.1538497501   -0.0363823378         -0.4261
H735       H    0.5137159076    1.1843469165    0.0271560805          0.5226
C678       C    0.5000000000    1.0000000000   -0.3802037540          0.5463
C679       C    0.4932232150    0.9736686926   -0.3641811741          0.5409
C680       C    0.4938964914    0.9712254685   -0.3326181322          0.5412
C681       C    0.5014008478    0.9954208655   -0.3134403200           0.547
C682       C    0.5085045917    1.0219070161   -0.3295525775         -0.4473
C683       C    0.5076887863    1.0241325300   -0.3613981927         -0.4477
C684       C    0.5028414693    0.9898579117   -0.2759160419          0.5479
Cl685     Cl    0.4851895631    0.9343724436   -0.3183332533          0.5343
H686       H    0.4869933831    0.9525949222   -0.3770399679           0.536
H687       H    0.5138429793    1.0463210689   -0.3722608458         -0.4428
Br688     Br    0.5213859582    1.0581879056   -0.3080280423         -0.4373
C689       C    0.4899679994    1.0115347383   -0.2486188168          0.5375
C690       C    0.5108056239    1.0052085360   -0.2182086373         -0.4462
N691       N    0.5295100155    0.9780440999   -0.2289757939         -0.4312
N692       N    0.5339874483    0.9822210424   -0.2630199791         -0.4274
C693       C    0.4946565450    0.9998948595   -0.1841613725          0.5408
H694       H    0.5420849918    0.9613154511   -0.2711252331         -0.4209
H695       H    0.5160797048    0.9583910716   -0.2275314033         -0.4418
H696       H    0.4912101956    1.0362544430   -0.2546240476          0.5385
H697       H    0.5268143590    1.0250455558   -0.2160266078         -0.4335
H698       H    0.4654615546    1.0059520515   -0.2440269911           0.518
H699       H    0.4890100412    0.9688427529   -0.2717422848          0.5369
C700       C    0.5129896087    1.0091258837   -0.1522614335         -0.4449
N701       N    0.5000000000    1.0000000000   -0.1197962460          0.5446
N702       N    0.4835511284    0.9865755929   -0.1345126926          0.5317
N703       N    0.4801915923    0.9891067953   -0.1657116766          0.5292
H704       H    0.5164125565    1.0345274661   -0.1521251914         -0.4422
H705       H    0.5365987988    0.9991745526   -0.1538497501         -0.4261
H706       H    0.4717371671    1.0112601556   -0.1843469165          0.5226
C649       C    0.5000000000    1.0000000000    0.1197962460          0.5463
C650       C    0.4933111331    0.9736462218    0.1358188259          0.5409
C651       C    0.4939925600    0.9712052584    0.1673818678          0.5412
C652       C    0.5014161228    0.9954255663    0.1865596800           0.547
C653       C    0.5084314300    1.0219352780    0.1704474225         -0.4473
C654       C    0.5076082015    1.0241580568    0.1386018073         -0.4477
C655       C    0.5028753025    0.9898674515    0.2240839581          0.5479
Cl656     Cl    0.4854086766    0.9343233795    0.1816667467          0.5343
H657       H    0.4871516693    0.9525517769    0.1229600321           0.536
H658       H    0.5136883063    1.0463670116    0.1277391542         -0.4428
Br659     Br    0.5211916378    1.0582589569    0.1919719577         -0.4373
C660       C    0.4899295583    1.0115011925    0.2513811832          0.5375
C661       C    0.5107881804    1.0052445706    0.2817913627         -0.4462
N662       N    0.5295831286    0.9781427114    0.2710242061         -0.4312
N663       N    0.5340465960    0.9823345740    0.2369800209         -0.4274
C664       C    0.4946569256    0.9998770263    0.3158386275          0.5408
H665       H    0.5422138665    0.9614561246    0.2288747669         -0.4209
H666       H    0.5162184844    0.9584449691    0.2724685967         -0.4418
H667       H    0.4910892459    1.0362249053    0.2453759524          0.5385
H668       H    0.5267306205    1.0251349089    0.2839733922         -0.4335
H669       H    0.4654418820    1.0058367468    0.2559730089           0.518
H670       H    0.4891140893    0.9688062476    0.2282577152          0.5369
C671       C    0.5129590788    1.0091691855    0.3477385665         -0.4449
N672       N    0.5000000000    1.0000000000    0.3802037540          0.5446
N673       N    0.4835960237    0.9865207698    0.3654873074          0.5317
N674       N    0.4802280586    0.9890407457    0.3342883234          0.5292
H675       H    0.5162972302    1.0345820505    0.3478748086         -0.4422
H676       H    0.5366013499    0.9992967052    0.3461502499         -0.4261
H677       H    0.4716997439    1.0111657661    0.3156530835          0.5226
C620       C    0.6197962460    0.5000000000    0.5000000000          0.5463
C621       C    0.6358188259    0.5026695817    0.4729419901          0.5409
C622       C    0.6673818678    0.5041403158    0.4708781137          0.5412
C623       C    0.6865596800    0.5028870199    0.4961795336           0.547
C624       C    0.6704474225    0.5004714166    0.5234951740         -0.4473
C625       C    0.6386018073    0.4989415084    0.5253056522         -0.4477
C626       C    0.7240839581    0.5061489722    0.4914486233          0.5479
Cl627     Cl    0.6816667467    0.5086072044    0.4332748831          0.5343
H628       H    0.6229600321    0.5040489152    0.4510100034           0.536
H629       H    0.6277391542    0.4971086224    0.5482587757         -0.4428
Br630     Br    0.6919719577    0.5001218484    0.5619933603         -0.4373
C631       C    0.7513811832    0.4866191831    0.5073922231          0.5375
C632       C    0.7817913627    0.5083624276    0.5086000093         -0.4462
N633       N    0.7710242061    0.5352520797    0.4895026937         -0.4312
N634       N    0.7369800209    0.5380244697    0.4949623737         -0.4274
C635       C    0.8158386275    0.4950170250    0.4980677665          0.5408
H636       H    0.7288747669    0.5528036506    0.4781044448         -0.4209
H637       H    0.7724685967    0.5293805859    0.4664345267         -0.4418
H638       H    0.7453759524    0.4793040021    0.5310374125          0.5385
H639       H    0.7839733922    0.5165926763    0.5327257209         -0.4335
H640       H    0.7559730089    0.4655160984    0.4937396759           0.518
H641       H    0.7282577152    0.5003680949    0.4669633878          0.5369
C642       C    0.8477385665    0.5090696795    0.5130289140         -0.4449
N643       N    0.8802037540    0.5000000000    0.5000000000          0.5446
N644       N    0.8654873074    0.4891560043    0.4817465663          0.5317
N645       N    0.8342883234    0.4851319070    0.4829713555          0.5292
H646       H    0.8478748086    0.5035688861    0.5380628557         -0.4422
H647       H    0.8461502499    0.5346601010    0.5117826497         -0.4261
H648       H    0.8156530835    0.4695893693    0.5008788457          0.5226
C591       C    1.1197962460    0.5000000000    0.5000000000          0.5463
C592       C    1.1358188259    0.5021548265    0.4728961389          0.5409
C593       C    1.1673818678    0.5035860683    0.4708046820          0.5412
C594       C    1.1865596800    0.5028138854    0.4961253521           0.547
C595       C    1.1704474225    0.5009178881    0.5234819700         -0.4473
C596       C    1.1386018073    0.4994226667    0.5253211991         -0.4477
C597       C    1.2240839581    0.5059853314    0.4913332987          0.5479
Cl598     Cl    1.1816667467    0.5073374513    0.4331233448          0.5343
H599       H    1.1229600321    0.5031170647    0.4509418978           0.536
H600       H    1.1277391542    0.4980263660    0.5483050128         -0.4428
Br601     Br    1.1919719577    0.5013000916    0.5619798462         -0.4373
C602       C    1.2513811832    0.4867620990    0.5076452078          0.5375
C603       C    1.2817913627    0.5085243715    0.5084395170         -0.4462
N604       N    1.2710242061    0.5350461968    0.4888345778         -0.4312
N605       N    1.2369800209    0.5379218544    0.4942405788         -0.4274
C606       C    1.3158386275    0.4949812005    0.4981628235          0.5408
H607       H    1.2288747669    0.5523779586    0.4771047972         -0.4209
H608       H    1.2724685967    0.5287373228    0.4658821732         -0.4418
H609       H    1.2453759524    0.4798976473    0.5314251606          0.5385
H610       H    1.2839733922    0.5172116743    0.5324044439         -0.4335
H611       H    1.2559730089    0.4654033417    0.4943962185 0.5196000000000001
H612       H    1.2282577152    0.4997401243    0.4669623593          0.5369
C613       C    1.3477385665    0.5093156728    0.5128541794         -0.4449
N614       N    1.3802037540    0.5000000000    0.5000000000          0.5446
N615       N    1.3654873074    0.4888110327    0.4819559679          0.5317
N616       N    1.3342883234    0.4848109409    0.4832570191          0.5292
H617       H    1.3478748086    0.5042916759    0.5379881488         -0.4422
H618       H    1.3461502499    0.5348777849    0.5111217607         -0.4261
H619       H    1.3156530835    0.4696115662    0.5014566808          0.5226
C562       C    0.8802037540    0.5000000000    0.0000000000          0.5463
C563       C    0.8641811741    0.4743758925    0.0090921769          0.5409
C564       C    0.8326181322    0.4727258160    0.0110156873          0.5412
C565       C    0.8134403200    0.4969850517    0.0037203406           0.547
C566       C    0.8295525775    0.5229202630   -0.0051871935         -0.4473
C567       C    0.8613981927    0.5243101465   -0.0071072650         -0.4477
C568       C    0.7759160419    0.4931764053    0.0080233695          0.5479
Cl569     Cl    0.8183332533    0.4372971655    0.0243860565          0.5343
H570       H    0.8770399679    0.4534176808    0.0157003508           0.536
H571       H    0.8722608458    0.5461506184   -0.0144010387         -0.4428
Br572     Br    0.8080280423    0.5602068575   -0.0147758544         -0.4373
C573       C    0.7486188168    0.5039609152   -0.0147649035          0.5375
C574       C    0.7182086373    0.5103572203    0.0060513092         -0.4462
N575       N    0.7289757939    0.4982796008    0.0367415676         -0.4312
N576       N    0.7630199791    0.5042454445    0.0381210464         -0.4274
C577       C    0.6841613725    0.4969271832   -0.0043727981          0.5408
H578       H    0.7711252331    0.4914320349    0.0565175268         -0.4209
H579       H    0.7275314033    0.4744764493    0.0365842614         -0.4418
H580       H    0.7546240476    0.5251560408   -0.0275466679          0.5385
H581       H    0.7160266078    0.5357536407    0.0082442036         -0.4335
H582       H    0.7440269911    0.4856381551   -0.0319698067           0.518
H583       H    0.7717422848    0.4680194620    0.0082944817          0.5369
C584       C    0.6522614335    0.5148263229    0.0056737850         -0.4449
N585       N    0.6197962460    0.5000000000    0.0000000000          0.5446
N586       N    0.6345126926    0.4796758969   -0.0061409216          0.5317
N587       N    0.6657116766    0.4798980079   -0.0103414138          0.5292
H588       H    0.6521251914    0.5378054377   -0.0056803879         -0.4422
H589       H    0.6538497501    0.5197647548    0.0308140861         -0.4261
H590       H    0.6843469165    0.4935468380   -0.0297310533          0.5226
C533       C    1.3802037540    0.5000000000    0.0000000000          0.5463
C534       C    1.3641811741    0.4870309899    0.0238970153          0.5409
C535       C    1.3326181322    0.4870907170    0.0264306052          0.5412
C536       C    1.3134403200    0.5002467614    0.0047822543           0.547
C537       C    1.3295525775    0.5135705478   -0.0191855588         -0.4473
C538       C    1.3613981927    0.5133196835   -0.0215425734         -0.4477
C539       C    1.2759160419    0.5002931635    0.0105285307          0.5479
Cl540     Cl    1.3183332533    0.4696939263    0.0600655234          0.5343
H541       H    1.3770399679    0.4758694639    0.0428267522           0.536
H542       H    1.3722608458    0.5246785813   -0.0415720714         -0.4428
Br543     Br    1.3080280423    0.5348778317   -0.0512516188         -0.4373
C544       C    1.2486188168    0.4930698368   -0.0136258601          0.5375
C545       C    1.2182086373    0.5117470928   -0.0024282023         -0.4462
N546       N    1.2289757939    0.5232939682    0.0284656567         -0.4312
N547       N    1.2630199791    0.5286518011    0.0255012209         -0.4274
C548       C    1.1841613725    0.4947910010   -0.0011957823          0.5408
H549       H    1.2711252331    0.5314295117    0.0477475303         -0.4209
H550       H    1.2275314033    0.5054926155    0.0442683973         -0.4418
H551       H    1.2546240476    0.5002785597   -0.0373037224          0.5385
H552       H    1.2160266078    0.5320943540   -0.0177831988         -0.4335
H553       H    1.2440269911    0.4679412771   -0.0141622532           0.518
H554       H    1.2717422848    0.4817718805    0.0275551973          0.5369
C555       C    1.1522614335    0.5148170989   -0.0056978299         -0.4449
N556       N    1.1197962460    0.5000000000    0.0000000000          0.5446
N557       N    1.1345126926    0.4807832237    0.0090274910          0.5317
N558       N    1.1657116766    0.4781390354    0.0057561402          0.5292
H559       H    1.1521251914    0.5243068872   -0.0295075103         -0.4422
H560       H    1.1538497501    0.5353024938    0.0096895497         -0.4261
H561       H    1.1843469165    0.4753181766   -0.0177872545          0.5226
C504       C    1.0000000000    0.5000000000   -0.3802037540          0.5463
C505       C    1.0263398900    0.4932566507   -0.3641811741          0.5409
C506       C    1.0287822573    0.4939330285   -0.3326181322          0.5412
C507       C    1.0045773523    0.5014066604   -0.3134403200           0.547
C508       C    0.9780822042    0.5084767717   -0.3295525775         -0.4473
C509       C    0.9758577278    0.5076581415   -0.3613981927         -0.4477
C510       C    1.0101384726    0.5028543434   -0.2759160419          0.5479
Cl511     Cl    1.0656463068    0.4852728958   -0.3183332533          0.5343
H512       H    1.0474215528    0.4870535791   -0.3770399679           0.536
H513       H    0.9536613934    0.5137841589   -0.3722608458         -0.4428
Br514     Br    0.9417849897    0.5213120656   -0.3080280423         -0.4373
C515       C    0.9884780076    0.4899533630   -0.2486188168          0.5375
C516       C    0.9947777493    0.5107990025   -0.2182086373         -0.4462
N517       N    1.0219184165    0.5295378669   -0.2289757939         -0.4312
N518       N    1.0177357928    0.5340099931   -0.2630199791         -0.4274
C519       C    1.0001119245    0.4946566828   -0.1841613725          0.5408
H520       H    1.0386310866    0.5421340718   -0.2711252331         -0.4209
H521       H    1.0415884801    0.5161325185   -0.2275314033         -0.4418
H522       H    0.9637567457    0.4911641740   -0.2546240476          0.5385
H523       H    0.9749204208    0.5267825396   -0.2160266078         -0.4335
H524       H    0.9940918033    0.4654540257   -0.2440269911           0.518
H525       H    1.0311711748    0.4890496073   -0.2717422848          0.5369
C526       C    0.9908576321    0.5129780120   -0.1522614335         -0.4449
N527       N    1.0000000000    0.5000000000   -0.1197962460          0.5446
N528       N    1.0134452798    0.4835681853   -0.1345126926          0.5317
N529       N    1.0109183447    0.4802054383   -0.1657116766          0.5292
H530       H    0.9654517243    0.5163687072   -0.1521251914         -0.4422
H531       H    1.0007789809    0.5365998173   -0.1538497501         -0.4261
H532       H    0.9887757360    0.4717228940   -0.1843469165          0.5226
C475       C    1.0000000000    0.5000000000    0.1197962460          0.5463
C476       C    0.9736601100    0.5067433493    0.1358188259          0.5409
C477       C    0.9712177427    0.5060669715    0.1673818678          0.5412
C478       C    0.9954226477    0.4985933396    0.1865596800           0.547
C479       C    1.0219177958    0.4915232283    0.1704474225         -0.4473
C480       C    1.0241422722    0.4923418585    0.1386018073         -0.4477
C481       C    0.9898615274    0.4971456566    0.2240839581          0.5479
Cl482     Cl    0.9343536932    0.5147271042    0.1816667467          0.5343
H483       H    0.9525784472    0.5129464209    0.1229600321           0.536
H484       H    1.0463386066    0.4862158411    0.1277391542         -0.4428
Br485     Br    1.0582150103    0.4786879344    0.1919719577         -0.4373
C486       C    1.0115219924    0.5100466370    0.2513811832          0.5375
C487       C    1.0052222507    0.4892009975    0.2817913627         -0.4462
N488       N    0.9780815835    0.4704621331    0.2710242061         -0.4312
N489       N    0.9822642072    0.4659900069    0.2369800209         -0.4274
C490       C    0.9998880755    0.5053433172    0.3158386275          0.5408
H491       H    0.9613689134    0.4578659282    0.2288747669         -0.4209
H492       H    0.9584115199    0.4838674815    0.2724685967         -0.4418
H493       H    1.0362432543    0.5088358260    0.2453759524          0.5385
H494       H    1.0250795792    0.4732174604    0.2839733922         -0.4335
H495       H    1.0059081967    0.5345459743    0.2559730089           0.518
H496       H    0.9688288252    0.5109503927    0.2282577152          0.5369
C497       C    1.0091423679    0.4870219880    0.3477385665         -0.4449
N498       N    1.0000000000    0.5000000000    0.3802037540          0.5446
N499       N    0.9865547202    0.5164318147    0.3654873074          0.5317
N500       N    0.9890816553    0.5197945617    0.3342883234          0.5292
H501       H    1.0345482757    0.4836312928    0.3478748086         -0.4422
H502       H    0.9992210191    0.4634001827    0.3461502499         -0.4261
H503       H    1.0112242640    0.5282771060    0.3156530835          0.5226
C446       C    1.0000000000   -0.1197962460    0.5000000000          0.5463
C447       C    1.0263398900   -0.1358188259    0.4932566507          0.5409
C448       C    1.0287822573   -0.1673818678    0.4939330285          0.5412
C449       C    1.0045773523   -0.1865596800    0.5014066604           0.547
C450       C    0.9780822042   -0.1704474225    0.5084767717         -0.4473
C451       C    0.9758577278   -0.1386018073    0.5076581415         -0.4477
C452       C    1.0101384726   -0.2240839581    0.5028543434          0.5479
Cl453     Cl    1.0656463068   -0.1816667467    0.4852728958          0.5343
H454       H    1.0474215528   -0.1229600321    0.4870535791           0.536
H455       H    0.9536613934   -0.1277391542    0.5137841589         -0.4428
Br456     Br    0.9417849897   -0.1919719577    0.5213120656         -0.4373
C457       C    0.9884780076   -0.2513811832    0.4899533630          0.5375
C458       C    0.9947777493   -0.2817913627    0.5107990025         -0.4462
N459       N    1.0219184165   -0.2710242061    0.5295378669         -0.4312
N460       N    1.0177357928   -0.2369800209    0.5340099931         -0.4274
C461       C    1.0001119245   -0.3158386275    0.4946566828          0.5408
H462       H    1.0386310866   -0.2288747669    0.5421340718         -0.4209
H463       H    1.0415884801   -0.2724685967    0.5161325185         -0.4418
H464       H    0.9637567457   -0.2453759524    0.4911641740          0.5385
H465       H    0.9749204208   -0.2839733922    0.5267825396         -0.4335
H466       H    0.9940918033   -0.2559730089    0.4654540257           0.518
H467       H    1.0311711748   -0.2282577152    0.4890496073          0.5369
C468       C    0.9908576321   -0.3477385665    0.5129780120         -0.4449
N469       N    1.0000000000   -0.3802037540    0.5000000000          0.5446
N470       N    1.0134452798   -0.3654873074    0.4835681853          0.5317
N471       N    1.0109183447   -0.3342883234    0.4802054383          0.5292
H472       H    0.9654517243   -0.3478748086    0.5163687072         -0.4422
H473       H    1.0007789809   -0.3461502499    0.5365998173         -0.4261
H474       H    0.9887757360   -0.3156530835    0.4717228940          0.5226
C417       C    1.0000000000    0.3802037540    0.5000000000          0.5463
C418       C    0.9746768155    0.3641811741    0.5098994390          0.5409
C419       C    0.9721702778    0.3326181322    0.5095253891          0.5412
C420       C    0.9952854594    0.3134403200    0.4991609800           0.547
C421       C    1.0207229723    0.3295525775    0.4889183100         -0.4473
C422       C    1.0230305551    0.3613981927    0.4894600774         -0.4477
C423       C    0.9895894728    0.2759160419    0.4984009920          0.5479
Cl424     Cl    0.9366345146    0.3183332533    0.5226084157          0.5343
H425       H    0.9545069916    0.3770399679    0.5186225579           0.536
H426       H    1.0443161412    0.3722608458    0.4806777558         -0.4428
Br427     Br    1.0551878921    0.3080280423    0.4717601677         -0.4373
C428       C    1.0126592439    0.2486188168    0.5085694088          0.5375
C429       C    1.0038689038    0.2182086373    0.4886456202         -0.4462
N430       N    0.9746490634    0.2289757939    0.4733498110         -0.4312
N431       N    0.9782562128    0.2630199791    0.4684018087         -0.4274
C432       C    1.0005393254    0.1841613725    0.5053172074          0.5408
H433       H    0.9565273933    0.2711252331    0.4628816308         -0.4209
H434       H    0.9567570420    0.2275314033    0.4890498217         -0.4418
H435       H    1.0370492873    0.2546240476    0.5043583953          0.5385
H436       H    1.0216329665    0.2160266078    0.4703637978         -0.4335
H437       H    1.0100693859    0.2440269911    0.5335699061           0.518
H438       H    0.9703935612    0.2717422848    0.5146632882          0.5369
C439       C    1.0074946294    0.1522614335    0.4860056363         -0.4449
N440       N    1.0000000000    0.1197962460    0.5000000000          0.5446
N441       N    0.9886548716    0.1345126926    0.5179462572          0.5317
N442       N    0.9915723478    0.1657116766    0.5209764058          0.5292
H443       H    1.0322988802    0.1521251914    0.4795476098         -0.4422
H444       H    0.9947716832    0.1538497501    0.4637671676         -0.4261
H445       H    1.0145828412    0.1843469165    0.5267005537          0.5226
C388       C    0.8802037540   -0.0000000000    0.5000000000          0.5463
C389       C    0.8641811741   -0.0267279406    0.4950120390          0.5409
C390       C    0.8326181322   -0.0291202712    0.4958483399          0.5412
C391       C    0.8134403200   -0.0044743886    0.5017060757           0.547
C392       C    0.8295525775    0.0224300646    0.5070098243         -0.4473
C393       C    0.8613981927    0.0245955799    0.5060459810         -0.4477
C394       C    0.7759160419   -0.0099276838    0.5035180957          0.5479
Cl395     Cl    0.8183332533   -0.0664760351    0.4896432651          0.5343
H396       H    0.8770399679   -0.0481734444    0.4902156895           0.536
H397       H    0.8722608458    0.0471482267    0.5106917827         -0.4428
Br398     Br    0.8080280423    0.0594961442    0.5174183925         -0.4373
C399       C    0.7486188168    0.0108328831    0.4892139040          0.5375
C400       C    0.7182086373    0.0059244774    0.5104302888         -0.4462
N401       N    0.7289757939   -0.0199185209    0.5309217575         -0.4312
N402       N    0.7630199791   -0.0154495038    0.5351077030         -0.4274
C403       C    0.6841613725   -0.0004647881    0.4946757594          0.5408
H404       H    0.7711252331   -0.0357622493    0.5445948695         -0.4209
H405       H    0.7275314033   -0.0404314672    0.5188455907         -0.4418
H406       H    0.7546240476    0.0355801210    0.4887883861          0.5385
H407       H    0.7160266078    0.0267946565    0.5250666332         -0.4335
H408       H    0.7440269911    0.0036123424    0.4651391034           0.518
H409       H    0.7717422848   -0.0318266832    0.4911334631          0.5369
C410       C    0.6522614335    0.0099800234    0.5123454777         -0.4449
N411       N    0.6197962460   -0.0000000000    0.5000000000          0.5446
N412       N    0.6345126926   -0.0145017708    0.4844926234          0.5317
N413       N    0.6657116766   -0.0122025835    0.4809702370          0.5292
H414       H    0.6521251914    0.0355544663    0.5140498347         -0.4422
H415       H    0.6538497501    0.0016413877    0.5365712904         -0.4261
H416       H    0.6843469165    0.0093310615    0.4710429608          0.5226
C359       C    1.3802037540    0.0000000000    0.5000000000          0.5463
C360       C    1.3641811741    0.0180334361    0.4796515910          0.5409
C361       C    1.3326181322    0.0185477534    0.4771700346          0.5412
C362       C    1.3134403200    0.0008402373    0.4952856762           0.547
C363       C    1.3295525775   -0.0175547968    0.5156228852         -0.4473
C364       C    1.3613981927   -0.0178430210    0.5179756235         -0.4477
C365       C    1.2759160419    0.0020934858    0.4896775381          0.5479
Cl366     Cl    1.3183332533    0.0430948622    0.4483361049          0.5343
H367       H    1.3770399679    0.0331837124    0.4637335594           0.536
H368       H    1.3722608458   -0.0334340702    0.5349203729         -0.4428
Br369     Br    1.3080280423   -0.0455567514    0.5420449042         -0.4373
C370       C    1.2486188168    0.0036719682    0.5148394027          0.5375
C371       C    1.2182086373   -0.0119919483    0.4997109808         -0.4462
N372       N    1.2289757939   -0.0162592780    0.4670069941         -0.4312
N373       N    1.2630199791   -0.0221483896    0.4686840805         -0.4274
C374       C    1.1841613725    0.0048040684    0.5023418994          0.5408
H375       H    1.2711252331   -0.0198273960    0.4463854943         -0.4209
H376       H    1.2275314033    0.0046525024    0.4556354415         -0.4418
H377       H    1.2546240476   -0.0087006458    0.5362759433          0.5385
H378       H    1.2160266078   -0.0352826151    0.5100710866         -0.4335
H379       H    1.2440269911    0.0280293899    0.5210400673           0.518
H380       H    1.2717422848    0.0239831390    0.4772763937          0.5369
C381       C    1.1522614335   -0.0157213683    0.5022023315         -0.4449
N382       N    1.1197962460    0.0000000000    0.5000000000          0.5446
N383       N    1.1345126926    0.0207596340    0.4955482945          0.5317
N384       N    1.1657116766    0.0225962254    0.4993325249          0.5292
H385       H    1.1521251914   -0.0303458357    0.5232518426         -0.4422
H386       H    1.1538497501   -0.0321999320    0.4825839781         -0.4261
H387       H    1.1843469165    0.0200241697    0.5229043982          0.5226
C330       C    0.0000000000   -0.3802037540    0.0000000000          0.5463
C331       C   -0.0213208831   -0.3641811741    0.0168725371          0.5409
C332       C   -0.0222621997   -0.3326181322    0.0192255284          0.5412
C333       C   -0.0016535453   -0.3134403200    0.0044940667           0.547
C334       C    0.0200213747   -0.3295525775   -0.0123040639         -0.4473
C335       C    0.0207175194   -0.3613981927   -0.0145698602         -0.4477
C336       C   -0.0038703738   -0.2759160419    0.0097957190          0.5479
Cl337     Cl   -0.0514832399   -0.3183332533    0.0433105208          0.5343
H338       H   -0.0390266941   -0.3770399679    0.0298886371           0.536
H339       H    0.0390372406   -0.3722608458   -0.0285195256         -0.4428
Br340     Br    0.0522210223   -0.3080280423   -0.0334089269         -0.4373
C341       C   -0.0010141065   -0.2486188168   -0.0152532886          0.5375
C342       C    0.0117556428   -0.2182086373    0.0023864658         -0.4462
N343       N    0.0102246312   -0.2289757939    0.0353321310         -0.4312
N344       N    0.0163165294   -0.2630199791    0.0347132373         -0.4274
C345       C   -0.0043192141   -0.1841613725   -0.0031476905          0.5408
H346       H    0.0101230227   -0.2711252331    0.0562598016         -0.4209
H347       H   -0.0123565941   -0.2275314033    0.0428622726         -0.4418
H348       H    0.0149243146   -0.2546240476   -0.0341893278          0.5385
H349       H    0.0365016430   -0.2160266078   -0.0037309216         -0.4335
H350       H   -0.0239076138   -0.2440269911   -0.0256272732           0.518
H351       H   -0.0275947979   -0.2717422848    0.0181681140          0.5369
C352       C    0.0158640060   -0.1522614335    0.0005873677         -0.4449
N353       N   -0.0000000000   -0.1197962460    0.0000000000          0.5446
N354       N   -0.0212185395   -0.1345126926    0.0007440883          0.5317
N355       N   -0.0223634075   -0.1657116766   -0.0033034721          0.5292
H356       H    0.0339515820   -0.1521251914   -0.0175729340         -0.4422
H357       H    0.0286488061   -0.1538497501    0.0227903345         -0.4261
H358       H   -0.0156995465   -0.1843469165   -0.0260596061          0.5226
C301       C    0.0000000000    0.3802037540    0.0000000000          0.5463
C302       C   -0.0147570354    0.3641811741   -0.0228362096          0.5409
C303       C   -0.0148910712    0.3326181322   -0.0253669564          0.5412
C304       C   -0.0001193657    0.3134403200   -0.0047871285           0.547
C305       C    0.0149968184    0.3295525775    0.0180925640         -0.4473
C306       C    0.0149267839    0.3613981927    0.0204618562         -0.4477
C307       C   -0.0005121646    0.2759160419   -0.0105201516          0.5479
Cl308     Cl   -0.0348070031    0.3183332533   -0.0575742801          0.5343
H309       H   -0.0273323277    0.3770399679   -0.0408577697           0.536
H310       H    0.0277829021    0.3722608458    0.0395648815         -0.4428
Br311     Br    0.0386919372    0.3080280423    0.0484368203         -0.4373
C312       C   -0.0058687696    0.2486188168    0.0141155506          0.5375
C313       C    0.0118982869    0.2182086373    0.0015235239         -0.4462
N314       N    0.0210508473    0.2289757939   -0.0301623008         -0.4312
N315       N    0.0266195257    0.2630199791   -0.0276159162         -0.4274
C316       C   -0.0051024028    0.1841613725    0.0015902992          0.5408
H317       H    0.0276893050    0.2711252331   -0.0500094316         -0.4209
H318       H    0.0020940690    0.2275314033   -0.0445586658         -0.4418
H319       H    0.0031280732    0.2546240476    0.0371733837          0.5385
H320       H    0.0333593194    0.2160266078    0.0152789243         -0.4335
H321       H   -0.0308828830    0.2440269911    0.0165704154           0.518
H322       H   -0.0202802871    0.2717422848   -0.0260818557          0.5369
C323       C    0.0152091460    0.1522614335    0.0045490179         -0.4449
N324       N    0.0000000000    0.1197962460   -0.0000000000          0.5446
N325       N   -0.0198503762    0.1345126926   -0.0075327716          0.5317
N326       N   -0.0222368749    0.1657116766   -0.0040689454          0.5292
H327       H    0.0264904577    0.1521251914    0.0275639907         -0.4422
H328       H    0.0344589243    0.1538497501   -0.0123586396         -0.4261
H329       H   -0.0232505677    0.1843469165    0.0196211603          0.5226
C272       C   -0.3802037540   -0.0000000000    0.0000000000          0.5463
C273       C   -0.3641811741   -0.0011384241    0.0271655399          0.5409
C274       C   -0.3326181322   -0.0024903485    0.0293091222          0.5412
C275       C   -0.3134403200   -0.0026668277    0.0039772953           0.547
C276       C   -0.3295525775   -0.0017965156   -0.0234311324         -0.4473
C277       C   -0.3613981927   -0.0003712119   -0.0253250595         -0.4477
C278       C   -0.2759160419   -0.0056566134    0.0088847413          0.5479
Cl279     Cl   -0.3183332533   -0.0048281409    0.0671045025          0.5343
H280       H   -0.3770399679   -0.0012779214    0.0491404151           0.536
H281       H   -0.3722608458    0.0001634916   -0.0483450387         -0.4428
Br282     Br   -0.3080280423   -0.0036199858   -0.0618876989         -0.4373
C283       C   -0.2486188168    0.0129423461   -0.0081355332          0.5375
C284       C   -0.2182086373   -0.0088344072   -0.0081144073         -0.4462
N285       N   -0.2289757939   -0.0346035352    0.0124698802         -0.4312
N286       N   -0.2630199791   -0.0376796013    0.0071753480         -0.4274
C287       C   -0.1841613725    0.0050840721    0.0016479615          0.5408
H288       H   -0.2711252331   -0.0514839264    0.0248404144         -0.4209
H289       H   -0.2275314033   -0.0274396437    0.0351699556         -0.4418
H290       H   -0.2546240476    0.0189115548   -0.0321558454          0.5385
H291       H   -0.2160266078   -0.0184129729   -0.0317372359         -0.4335
H292       H   -0.2440269911    0.0347822268    0.0043043961           0.518
H293       H   -0.2717422848    0.0014967723    0.0330047408          0.5369
C294       C   -0.1522614335   -0.0097904584   -0.0124963439         -0.4449
N295       N   -0.1197962460   -0.0000000000    0.0000000000          0.5446
N296       N   -0.1345126926    0.0118567708    0.0176124124          0.5317
N297       N   -0.1657116766    0.0158053401    0.0161624921          0.5292
H298       H   -0.1521251914   -0.0057111144   -0.0378008082         -0.4422
H299       H   -0.1538497501   -0.0352697744   -0.0098079789         -0.4261
H300       H   -0.1843469165    0.0303125779   -0.0025935398          0.5226
C243       C    0.3802037540   -0.0000000000    0.0000000000          0.5463
C244       C    0.3641811741   -0.0190957942    0.0193549272          0.5409
C245       C    0.3326181322   -0.0197420806    0.0218054290          0.5412
C246       C    0.3134403200   -0.0010911406    0.0046626452           0.547
C247       C    0.3295525775    0.0183651352   -0.0146617612         -0.4473
C248       C    0.3613981927    0.0187787632   -0.0169957197         -0.4477
C249       C    0.2759160419   -0.0026424995    0.0101957393          0.5479
Cl250     Cl    0.3183332533   -0.0457960032    0.0492854065          0.5343
H251       H    0.3770399679   -0.0350756329    0.0344399979           0.536
H252       H    0.3722608458    0.0352536495   -0.0330824680         -0.4428
Br253     Br    0.3080280423    0.0477399796   -0.0395485261         -0.4373
C254       C    0.2486188168   -0.0028731545   -0.0150145332          0.5375
C255       C    0.2182086373    0.0119593334    0.0009298932         -0.4462
N256       N    0.2289757939    0.0144716618    0.0338152860         -0.4312
N257       N    0.2630199791    0.0204420313    0.0324555285         -0.4274
C258       C    0.1841613725   -0.0046719577   -0.0025954533          0.5408
H259       H    0.2711252331    0.0169319082    0.0545980892         -0.4209
H260       H    0.2275314033   -0.0070183071    0.0440522779         -0.4418
H261       H    0.2546240476    0.0106281072   -0.0357587561          0.5385
H262       H    0.2160266078    0.0357706961   -0.0081698847         -0.4335
H263       H    0.2440269911   -0.0268641334   -0.0225088753           0.518
H264       H    0.2717422848   -0.0251640010    0.0214085565          0.5369
C265       C    0.1522614335    0.0158166458   -0.0013584562         -0.4449
N266       N    0.1197962460   -0.0000000000    0.0000000000          0.5446
N267       N    0.1345126926   -0.0209679909    0.0033351827          0.5317
N268       N    0.1657116766   -0.0225995868   -0.0005418474          0.5292
H269       H    0.1521251914    0.0315458416   -0.0215957821         -0.4422
H270       H    0.1538497501    0.0312225092    0.0191130416         -0.4261
H271       H    0.1843469165   -0.0187706698   -0.0239424473          0.5226
C214       C    0.0000000000    0.0000000000   -0.3802037540          0.5463
C215       C   -0.0065382154   -0.0263915575   -0.3641811741          0.5409
C216       C   -0.0058428560   -0.0288285884   -0.3326181322          0.5412
C217       C    0.0014422306   -0.0045662697   -0.3134403200           0.547
C218       C    0.0083059902    0.0219830835   -0.3295525775         -0.4473
C219       C    0.0074700778    0.0242011234   -0.3613981927         -0.4477
C220       C    0.0029331364   -0.0101159584   -0.2759160419          0.5479
Cl221     Cl   -0.0142159166   -0.0657588999   -0.3183332533          0.5343
H222       H   -0.0125770796   -0.0475208433   -0.3770399679           0.536
H223       H    0.0134232178    0.0464444477   -0.3722608458         -0.4428
Br224     Br    0.0208584957    0.0583790607   -0.3080280423         -0.4373
C225       C   -0.0101359764    0.0114434788   -0.2486188168          0.5375
C226       C    0.0107580454    0.0053061111   -0.2182086373         -0.4462
N227       N    0.0297075027   -0.0216879424   -0.2289757939         -0.4312
N228       N    0.0341469519   -0.0174706512   -0.2630199791         -0.4274
C229       C   -0.0053422847   -0.0001534932   -0.1841613725          0.5408
H230       H    0.0424333544   -0.0383021056   -0.2711252331         -0.4209
H231       H    0.0164555972   -0.0414617070   -0.2275314033         -0.4418
H232       H   -0.0091175386    0.0361734128   -0.2546240476          0.5385
H233       H    0.0265866046    0.0252871938   -0.2160266078         -0.4335
H234       H   -0.0345908957    0.0056392431   -0.2440269911           0.518
H235       H   -0.0107075430   -0.0312554277   -0.2717422848          0.5369
C236       C    0.0129064897    0.0092430629   -0.1522614335         -0.4449
N237       N    0.0000000000    0.0000000000   -0.1197962460          0.5446
N238       N   -0.0163267103   -0.0135727158   -0.1345126926          0.5317
N239       N   -0.0197090156   -0.0110720200   -0.1657116766          0.5292
H240       H    0.0160994191    0.0346745820   -0.1521251914         -0.4422
H241       H    0.0366047702   -0.0004942031   -0.1538497501         -0.4261
H242       H   -0.0283635773    0.0110039226   -0.1843469165          0.5226
C185       C    0.0000000000    0.0000000000    0.3802037540          0.5463
C186       C   -0.0001049321    0.0271891808    0.3641811741          0.5409
C187       C    0.0011475613    0.0293923388    0.3326181322          0.5412
C188       C    0.0024821734    0.0040950779    0.3134403200           0.547
C189       C    0.0028660432   -0.0233244770    0.3295525775         -0.4473
C190       C    0.0015288316   -0.0252815963    0.3613981927         -0.4477
C191       C    0.0052444350    0.0091341012    0.2759160419          0.5479
Cl192     Cl    0.0017546853    0.0672550837    0.3183332533          0.5343
H193       H   -0.0009703990    0.0491474496    0.3770399679           0.536
H194       H    0.0020472939   -0.0483019470    0.3722608458         -0.4428
Br195     Br    0.0064460625   -0.0616574395    0.3080280423         -0.4373
C196       C   -0.0125568052   -0.0087188225    0.2486188168          0.5375
C197       C    0.0091962042   -0.0077019598    0.2182086373         -0.4462
N198       N    0.0339971460    0.0140391106    0.2289757939         -0.4312
N199       N    0.0373120912    0.0088907719    0.2630199791         -0.4274
C200       C   -0.0051541086    0.0014137646    0.1841613725          0.5408
H201       H    0.0502942285    0.0271685745    0.2711252331         -0.4209
H202       H    0.0258027691    0.0363878679    0.2275314033         -0.4418
H203       H   -0.0174214229   -0.0329869569    0.2546240476          0.5385
H204       H    0.0198449233   -0.0308620922    0.2160266078         -0.4335
H205       H   -0.0349426675    0.0027094495    0.2440269911           0.518
H206       H   -0.0030043741    0.0329017777    0.2717422848          0.5369
C207       C    0.0103516229   -0.0120355967    0.1522614335         -0.4449
N208       N   -0.0000000000   -0.0000000000    0.1197962460          0.5446
N209       N   -0.0126497102    0.0170518303    0.1345126926          0.5317
N210       N   -0.0165278506    0.0154228751    0.1657116766          0.5292
H211       H    0.0074336121   -0.0375001245    0.1521251914         -0.4422
H212       H    0.0356813607   -0.0081849823    0.1538497501         -0.4261
H213       H   -0.0301622803   -0.0039768932    0.1843469165          0.5226
loop_
_geom_bond_atom_site_label_1
_geom_bond_atom_site_label_2
_geom_bond_distance
_geom_bond_site_symmetry_2
_ccdc_geom_bond_type
Zn1          O5 1.942       .   S
Zn1          O6 1.922       .   S
Zn1         O10 1.922       .   S
Zn1         O17 1.922       .   S
Zn2          O5 1.942       .   S
Zn2          O7 1.922       .   S
Zn2          O9 1.922       .   S
Zn2         O13 1.922       .   S
Zn3          O5 1.942       .   S
Zn3          O8 1.922       .   S
Zn3         O11 1.922       .   S
Zn3         O14 1.922       .   S
Zn4          O5 1.942       .   S
Zn4         O12 1.922       .   S
Zn4         O15 1.922       .   S
Zn4         O16 1.922       .   S
O6          C18 1.304       .   A
O7          C19 1.304       .   A
O8          C20 1.304       .   A
O9          C18 1.304       .   A
O10         C20 1.304       .   A
O11         C19 1.304       .   A
O12         C21 1.304       .   A
O13         C22 1.304       .   A
O14         C21 1.304       .   A
O15         C22 1.304       .   A
O16         C23 1.304       .   A
O17         C23 1.304       .   A
C18        N208 1.540       .   S
C19        N266 1.540       .   S
C20        N353 1.540       .   S
C21        N237 1.540       .   S
C22        N324 1.540       .   S
C23        N295 1.540       .   S
Zn24        O28 1.942       .   S
Zn24        O29 1.922       .   S
Zn24        O33 1.922       .   S
Zn24        O40 1.922       .   S
Zn25        O28 1.942       .   S
Zn25        O30 1.922       .   S
Zn25        O32 1.922       .   S
Zn25        O36 1.922       .   S
Zn26        O28 1.942       .   S
Zn26        O31 1.922       .   S
Zn26        O34 1.922       .   S
Zn26        O37 1.922       .   S
Zn27        O28 1.942       .   S
Zn27        O35 1.922       .   S
Zn27        O38 1.922       .   S
Zn27        O39 1.922       .   S
O29         C41 1.304       .   A
O30         C42 1.304       .   A
O31         C43 1.304       .   A
O32         C41 1.304       .   A
O33         C43 1.304       .   A
O34         C42 1.304       .   A
O35         C44 1.304       .   A
O36         C45 1.304       .   A
O37         C44 1.304       .   A
O38         C45 1.304       .   A
O39         C46 1.304       .   A
O40         C46 1.304       .   A
C41        C446 1.540       .   S
C42        C388 1.540       .   S
C43        C214 1.540   1_656   S
C44        N440 1.540       .   S
C45        C185 1.540   1_655   S
C46        N382 1.540       .   S
Zn47        O51 1.942       .   S
Zn47        O52 1.922       .   S
Zn47        O56 1.922       .   S
Zn47        O63 1.922       .   S
Zn48        O51 1.942       .   S
Zn48        O53 1.922       .   S
Zn48        O55 1.922       .   S
Zn48        O59 1.922       .   S
Zn49        O51 1.942       .   S
Zn49        O54 1.922       .   S
Zn49        O57 1.922       .   S
Zn49        O60 1.922       .   S
Zn50        O51 1.942       .   S
Zn50        O58 1.922       .   S
Zn50        O61 1.922       .   S
Zn50        O62 1.922       .   S
O52         C64 1.304       .   A
O53         C65 1.304       .   A
O54         C66 1.304       .   A
O55         C64 1.304       .   A
O56         C66 1.304       .   A
O57         C65 1.304       .   A
O58         C67 1.304       .   A
O59         C68 1.304       .   A
O60         C67 1.304       .   A
O61         C68 1.304       .   A
O62         C69 1.304       .   A
O63         C69 1.304       .   A
C64        C301 1.540   1_655   S
C65        N556 1.540       .   S
C66        N527 1.540       .   S
C67        C330 1.540   1_665   S
C68        C475 1.540       .   S
C69        C562 1.540       .   S
Zn70        O74 1.942       .   S
Zn70        O75 1.922       .   S
Zn70        O79 1.922       .   S
Zn70        O86 1.922       .   S
Zn71        O74 1.942       .   S
Zn71        O76 1.922       .   S
Zn71        O78 1.922       .   S
Zn71        O82 1.922       .   S
Zn72        O74 1.942       .   S
Zn72        O77 1.922       .   S
Zn72        O80 1.922       .   S
Zn72        O83 1.922       .   S
Zn73        O74 1.942       .   S
Zn73        O81 1.922       .   S
Zn73        O84 1.922       .   S
Zn73        O85 1.922       .   S
O75         C87 1.304       .   A
O76         C88 1.304       .   A
O77         C89 1.304       .   A
O78         C87 1.304       .   A
O79         C89 1.304       .   A
O80         C88 1.304       .   A
O81         C90 1.304       .   A
O82         C91 1.304       .   A
O83         C90 1.304       .   A
O84         C91 1.304       .   A
O85         C92 1.304       .   A
O86         C92 1.304       .   A
C87        C417 1.540       .   S
C88        N643 1.540       .   S
C89        C504 1.540   1_556   S
C90        N469 1.540   1_565   S
C91        N498 1.540       .   S
C92        C591 1.540       .   S
Zn93        O97 1.942       .   S
Zn93        O98 1.922       .   S
Zn93       O102 1.922       .   S
Zn93       O109 1.922       .   S
Zn94        O97 1.942       .   S
Zn94        O99 1.922       .   S
Zn94       O101 1.922       .   S
Zn94       O105 1.922       .   S
Zn95        O97 1.942       .   S
Zn95       O100 1.922       .   S
Zn95       O103 1.922       .   S
Zn95       O106 1.922       .   S
Zn96        O97 1.942       .   S
Zn96       O104 1.922       .   S
Zn96       O107 1.922       .   S
Zn96       O108 1.922       .   S
O98        C110 1.304       .   A
O99        C111 1.304       .   A
O100       C112 1.304       .   A
O101       C110 1.304       .   A
O102       C112 1.304       .   A
O103       C111 1.304       .   A
O104       C113 1.304       .   A
O105       C114 1.304       .   A
O106       C113 1.304       .   A
O107       C114 1.304       .   A
O108       C115 1.304       .   A
O109       C115 1.304       .   A
C110       C243 1.540   1_565   S
C111       C649 1.540       .   S
C112       C736 1.540       .   S
C113       C272 1.540   1_665   S
C114       N730 1.540       .   S
C115       N701 1.540       .   S
Zn116      O120 1.942       .   S
Zn116      O121 1.922       .   S
Zn116      O125 1.922       .   S
Zn116      O132 1.922       .   S
Zn117      O120 1.942       .   S
Zn117      O122 1.922       .   S
Zn117      O124 1.922       .   S
Zn117      O128 1.922       .   S
Zn118      O120 1.942       .   S
Zn118      O123 1.922       .   S
Zn118      O126 1.922       .   S
Zn118      O129 1.922       .   S
Zn119      O120 1.942       .   S
Zn119      O127 1.922       .   S
Zn119      O130 1.922       .   S
Zn119      O131 1.922       .   S
O121       C133 1.304       .   A
O122       C134 1.304       .   A
O123       C135 1.304       .   A
O124       C133 1.304       .   A
O125       C135 1.304       .   A
O126       C134 1.304       .   A
O127       C136 1.304       .   A
O128       C137 1.304       .   A
O129       C136 1.304       .   A
O130       C137 1.304       .   A
O131       C138 1.304       .   A
O132       C138 1.304       .   A
C133       C794 1.540       .   S
C134       C359 1.540   1_465   S
C135       C678 1.540   1_556   S
C136       C765 1.540       .   S
C137       N672 1.540       .   S
C138       N411 1.540   1_565   S
Zn139      O143 1.942       .   S
Zn139      O144 1.922       .   S
Zn139      O148 1.922       .   S
Zn139      O155 1.922       .   S
Zn140      O143 1.942       .   S
Zn140      O145 1.922       .   S
Zn140      O147 1.922       .   S
Zn140      O151 1.922       .   S
Zn141      O143 1.942       .   S
Zn141      O146 1.922       .   S
Zn141      O149 1.922       .   S
Zn141      O152 1.922       .   S
Zn142      O143 1.942       .   S
Zn142      O150 1.922       .   S
Zn142      O153 1.922       .   S
Zn142      O154 1.922       .   S
O144       C156 1.304       .   A
O145       C157 1.304       .   A
O146       C158 1.304       .   A
O147       C156 1.304       .   A
O148       C158 1.304       .   A
O149       C157 1.304       .   A
O150       C159 1.304       .   A
O151       C160 1.304       .   A
O152       C159 1.304       .   A
O153       C160 1.304       .   A
O154       C161 1.304       .   A
O155       C161 1.304       .   A
C156       C533 1.540   1_455   S
C157       C707 1.540   1_545   S
C158       C852 1.540       .   S
C159       N585 1.540       .   S
C160       C823 1.540       .   S
C161       N759 1.540       .   S
Zn162      O166 1.942       .   S
Zn162      O167 1.922       .   S
Zn162      O171 1.922       .   S
Zn162      O178 1.922       .   S
Zn163      O166 1.942       .   S
Zn163      O168 1.922       .   S
Zn163      O170 1.922       .   S
Zn163      O174 1.922       .   S
Zn164      O166 1.942       .   S
Zn164      O169 1.922       .   S
Zn164      O172 1.922       .   S
Zn164      O175 1.922       .   S
Zn165      O166 1.942       .   S
Zn165      O173 1.922       .   S
Zn165      O176 1.922       .   S
Zn165      O177 1.922       .   S
O167       C179 1.304       .   A
O168       C180 1.304       .   A
O169       C181 1.304       .   A
O170       C179 1.304       .   A
O171       C181 1.304       .   A
O172       C180 1.304       .   A
O173       C182 1.304       .   A
O174       C183 1.304       .   A
O175       C182 1.304       .   A
O176       C183 1.304       .   A
O177       C184 1.304       .   A
O178       C184 1.304       .   A
C179       N614 1.540   1_455   S
C180       N788 1.540   1_545   S
C181       N846 1.540       .   S
C182       C620 1.540       .   S
C183       N875 1.540   1_556   S
C184       N817 1.540       .   S
C852       C853 0.025       .   A
C852       C857 0.025       .   A
C853       C854 0.025       .   A
C853       H860 0.020       .   A
C854       C855 0.025       .   A
C854      Cl859 0.032       .   A
C855       C856 0.025       .   A
C855       C858 0.030       .   A
C856       C857 0.025       .   A
C856      Br862 0.035       .   A
C857       H861 0.020       .   A
C858       C863 0.030       .   A
C858       N866 0.027       .   A
C858       H873 0.020       .   A
C863       C864 0.030       .   A
C863       H870 0.020       .   A
C863       H872 0.020       .   A
C864       N865 0.028       .   A
C864       C867 0.030       .   A
C864       H871 0.020       .   A
N865       N866 0.027       .   A
N865       H869 0.019       .   A
N866       H868 0.019       .   A
C867       C874 0.030       .   A
C867       N877 0.021       .   A
C867       H880 0.020       .   A
C874       N875 0.029       .   A
C874       H878 0.020       .   A
C874       H879 0.020       .   A
N875       N876 0.021       .   A
N876       N877 0.025       .   A
C823       C824 0.025       .   A
C823       C828 0.025       .   A
C824       C825 0.025       .   A
C824       H831 0.020       .   A
C825       C826 0.025       .   A
C825      Cl830 0.032       .   A
C826       C827 0.025       .   A
C826       C829 0.030       .   A
C827       C828 0.025       .   A
C827      Br833 0.035       .   A
C828       H832 0.020       .   A
C829       C834 0.030       .   A
C829       N837 0.027       .   A
C829       H844 0.020       .   A
C834       C835 0.030       .   A
C834       H841 0.020       .   A
C834       H843 0.020       .   A
C835       N836 0.028       .   A
C835       C838 0.030       .   A
C835       H842 0.020       .   A
N836       N837 0.027       .   A
N836       H840 0.019       .   A
N837       H839 0.019       .   A
C838       C845 0.030       .   A
C838       N848 0.021       .   A
C838       H851 0.020       .   A
C845       N846 0.029       .   A
C845       H849 0.020       .   A
C845       H850 0.020       .   A
N846       N847 0.021       .   A
N847       N848 0.025       .   A
C794       C795 0.025       .   A
C794       C799 0.025       .   A
C795       C796 0.025       .   A
C795       H802 0.020       .   A
C796       C797 0.025       .   A
C796      Cl801 0.032       .   A
C797       C798 0.025       .   A
C797       C800 0.030       .   A
C798       C799 0.025       .   A
C798      Br804 0.035       .   A
C799       H803 0.020       .   A
C800       C805 0.030       .   A
C800       N808 0.027       .   A
C800       H815 0.020       .   A
C805       C806 0.030       .   A
C805       H812 0.020       .   A
C805       H814 0.020       .   A
C806       N807 0.028       .   A
C806       C809 0.030       .   A
C806       H813 0.020       .   A
N807       N808 0.027       .   A
N807       H811 0.019       .   A
N808       H810 0.019       .   A
C809       C816 0.030       .   A
C809       N819 0.021       .   A
C809       H822 0.020       .   A
C816       N817 0.029       .   A
C816       H820 0.020       .   A
C816       H821 0.020       .   A
N817       N818 0.021       .   A
N818       N819 0.025       .   A
C765       C766 0.025       .   A
C765       C770 0.025       .   A
C766       C767 0.025       .   A
C766       H773 0.020       .   A
C767       C768 0.025       .   A
C767      Cl772 0.032       .   A
C768       C769 0.025       .   A
C768       C771 0.030       .   A
C769       C770 0.025       .   A
C769      Br775 0.035       .   A
C770       H774 0.020       .   A
C771       C776 0.030       .   A
C771       N779 0.027       .   A
C771       H786 0.020       .   A
C776       C777 0.030       .   A
C776       H783 0.020       .   A
C776       H785 0.020       .   A
C777       N778 0.028       .   A
C777       C780 0.030       .   A
C777       H784 0.020       .   A
N778       N779 0.027       .   A
N778       H782 0.019       .   A
N779       H781 0.019       .   A
C780       C787 0.030       .   A
C780       N790 0.021       .   A
C780       H793 0.020       .   A
C787       N788 0.029       .   A
C787       H791 0.020       .   A
C787       H792 0.020       .   A
N788       N789 0.021       .   A
N789       N790 0.025       .   A
C736       C737 0.025       .   A
C736       C741 0.025       .   A
C737       C738 0.025       .   A
C737       H744 0.020       .   A
C738       C739 0.025       .   A
C738      Cl743 0.032       .   A
C739       C740 0.025       .   A
C739       C742 0.030       .   A
C740       C741 0.025       .   A
C740      Br746 0.035       .   A
C741       H745 0.020       .   A
C742       C747 0.030       .   A
C742       N750 0.027       .   A
C742       H757 0.020       .   A
C747       C748 0.030       .   A
C747       H754 0.020       .   A
C747       H756 0.020       .   A
C748       N749 0.028       .   A
C748       C751 0.030       .   A
C748       H755 0.020       .   A
N749       N750 0.027       .   A
N749       H753 0.019       .   A
N750       H752 0.019       .   A
C751       C758 0.030       .   A
C751       N761 0.021       .   A
C751       H764 0.020       .   A
C758       N759 0.029       .   A
C758       H762 0.020       .   A
C758       H763 0.020       .   A
N759       N760 0.021       .   A
N760       N761 0.025       .   A
C707       C708 0.025       .   A
C707       C712 0.025       .   A
C708       C709 0.025       .   A
C708       H715 0.020       .   A
C709       C710 0.025       .   A
C709      Cl714 0.032       .   A
C710       C711 0.025       .   A
C710       C713 0.030       .   A
C711       C712 0.025       .   A
C711      Br717 0.035       .   A
C712       H716 0.020       .   A
C713       C718 0.030       .   A
C713       N721 0.027       .   A
C713       H728 0.020       .   A
C718       C719 0.030       .   A
C718       H725 0.020       .   A
C718       H727 0.020       .   A
C719       N720 0.028       .   A
C719       C722 0.030       .   A
C719       H726 0.020       .   A
N720       N721 0.027       .   A
N720       H724 0.019       .   A
N721       H723 0.019       .   A
C722       C729 0.030       .   A
C722       N732 0.021       .   A
C722       H735 0.020       .   A
C729       N730 0.029       .   A
C729       H733 0.020       .   A
C729       H734 0.020       .   A
N730       N731 0.021       .   A
N731       N732 0.025       .   A
C678       C679 0.025       .   A
C678       C683 0.025       .   A
C679       C680 0.025       .   A
C679       H686 0.020       .   A
C680       C681 0.025       .   A
C680      Cl685 0.032       .   A
C681       C682 0.025       .   A
C681       C684 0.030       .   A
C682       C683 0.025       .   A
C682      Br688 0.035       .   A
C683       H687 0.020       .   A
C684       C689 0.030       .   A
C684       N692 0.027       .   A
C684       H699 0.020       .   A
C689       C690 0.030       .   A
C689       H696 0.020       .   A
C689       H698 0.020       .   A
C690       N691 0.028       .   A
C690       C693 0.030       .   A
C690       H697 0.020       .   A
N691       N692 0.027       .   A
N691       H695 0.019       .   A
N692       H694 0.019       .   A
C693       C700 0.030       .   A
C693       N703 0.021       .   A
C693       H706 0.020       .   A
C700       N701 0.029       .   A
C700       H704 0.020       .   A
C700       H705 0.020       .   A
N701       N702 0.021       .   A
N702       N703 0.025       .   A
C649       C650 0.025       .   A
C649       C654 0.025       .   A
C650       C651 0.025       .   A
C650       H657 0.020       .   A
C651       C652 0.025       .   A
C651      Cl656 0.032       .   A
C652       C653 0.025       .   A
C652       C655 0.030       .   A
C653       C654 0.025       .   A
C653      Br659 0.035       .   A
C654       H658 0.020       .   A
C655       C660 0.030       .   A
C655       N663 0.027       .   A
C655       H670 0.020       .   A
C660       C661 0.030       .   A
C660       H667 0.020       .   A
C660       H669 0.020       .   A
C661       N662 0.028       .   A
C661       C664 0.030       .   A
C661       H668 0.020       .   A
N662       N663 0.027       .   A
N662       H666 0.019       .   A
N663       H665 0.019       .   A
C664       C671 0.030       .   A
C664       N674 0.021       .   A
C664       H677 0.020       .   A
C671       N672 0.029       .   A
C671       H675 0.020       .   A
C671       H676 0.020       .   A
N672       N673 0.021       .   A
N673       N674 0.025       .   A
C620       C621 0.025       .   A
C620       C625 0.025       .   A
C621       C622 0.025       .   A
C621       H628 0.020       .   A
C622       C623 0.025       .   A
C622      Cl627 0.032       .   A
C623       C624 0.025       .   A
C623       C626 0.030       .   A
C624       C625 0.025       .   A
C624      Br630 0.035       .   A
C625       H629 0.020       .   A
C626       C631 0.030       .   A
C626       N634 0.027       .   A
C626       H641 0.020       .   A
C631       C632 0.030       .   A
C631       H638 0.020       .   A
C631       H640 0.020       .   A
C632       N633 0.028       .   A
C632       C635 0.030       .   A
C632       H639 0.020       .   A
N633       N634 0.027       .   A
N633       H637 0.019       .   A
N634       H636 0.019       .   A
C635       C642 0.030       .   A
C635       N645 0.021       .   A
C635       H648 0.020       .   A
C642       N643 0.029       .   A
C642       H646 0.020       .   A
C642       H647 0.020       .   A
N643       N644 0.021       .   A
N644       N645 0.025       .   A
C591       C592 0.025       .   A
C591       C596 0.025       .   A
C592       C593 0.025       .   A
C592       H599 0.020       .   A
C593       C594 0.025       .   A
C593      Cl598 0.032       .   A
C594       C595 0.025       .   A
C594       C597 0.030       .   A
C595       C596 0.025       .   A
C595      Br601 0.035       .   A
C596       H600 0.020       .   A
C597       C602 0.030       .   A
C597       N605 0.027       .   A
C597       H612 0.020       .   A
C602       C603 0.030       .   A
C602       H609 0.020       .   A
C602       H611 0.020       .   A
C603       N604 0.028       .   A
C603       C606 0.030       .   A
C603       H610 0.020       .   A
N604       N605 0.027       .   A
N604       H608 0.019       .   A
N605       H607 0.019       .   A
C606       C613 0.030       .   A
C606       N616 0.021       .   A
C606       H619 0.020       .   A
C613       N614 0.029       .   A
C613       H617 0.020       .   A
C613       H618 0.020       .   A
N614       N615 0.021       .   A
N615       N616 0.025       .   A
C562       C563 0.025       .   A
C562       C567 0.025       .   A
C563       C564 0.025       .   A
C563       H570 0.020       .   A
C564       C565 0.025       .   A
C564      Cl569 0.032       .   A
C565       C566 0.025       .   A
C565       C568 0.030       .   A
C566       C567 0.025       .   A
C566      Br572 0.035       .   A
C567       H571 0.020       .   A
C568       C573 0.030       .   A
C568       N576 0.027       .   A
C568       H583 0.020       .   A
C573       C574 0.030       .   A
C573       H580 0.020       .   A
C573       H582 0.020       .   A
C574       N575 0.028       .   A
C574       C577 0.030       .   A
C574       H581 0.020       .   A
N575       N576 0.027       .   A
N575       H579 0.019       .   A
N576       H578 0.019       .   A
C577       C584 0.030       .   A
C577       N587 0.021       .   A
C577       H590 0.020       .   A
C584       N585 0.029       .   A
C584       H588 0.020       .   A
C584       H589 0.020       .   A
N585       N586 0.021       .   A
N586       N587 0.025       .   A
C533       C534 0.025       .   A
C533       C538 0.025       .   A
C534       C535 0.025       .   A
C534       H541 0.020       .   A
C535       C536 0.025       .   A
C535      Cl540 0.032       .   A
C536       C537 0.025       .   A
C536       C539 0.030       .   A
C537       C538 0.025       .   A
C537      Br543 0.035       .   A
C538       H542 0.020       .   A
C539       C544 0.030       .   A
C539       N547 0.027       .   A
C539       H554 0.020       .   A
C544       C545 0.030       .   A
C544       H551 0.020       .   A
C544       H553 0.020       .   A
C545       N546 0.028       .   A
C545       C548 0.030       .   A
C545       H552 0.020       .   A
N546       N547 0.027       .   A
N546       H550 0.019       .   A
N547       H549 0.019       .   A
C548       C555 0.030       .   A
C548       N558 0.021       .   A
C548       H561 0.020       .   A
C555       N556 0.029       .   A
C555       H559 0.020       .   A
C555       H560 0.020       .   A
N556       N557 0.021       .   A
N557       N558 0.025       .   A
C504       C505 0.025       .   A
C504       C509 0.025       .   A
C505       C506 0.025       .   A
C505       H512 0.020       .   A
C506       C507 0.025       .   A
C506      Cl511 0.032       .   A
C507       C508 0.025       .   A
C507       C510 0.030       .   A
C508       C509 0.025       .   A
C508      Br514 0.035       .   A
C509       H513 0.020       .   A
C510       C515 0.030       .   A
C510       N518 0.027       .   A
C510       H525 0.020       .   A
C515       C516 0.030       .   A
C515       H522 0.020       .   A
C515       H524 0.020       .   A
C516       N517 0.028       .   A
C516       C519 0.030       .   A
C516       H523 0.020       .   A
N517       N518 0.027       .   A
N517       H521 0.019       .   A
N518       H520 0.019       .   A
C519       C526 0.030       .   A
C519       N529 0.021       .   A
C519       H532 0.020       .   A
C526       N527 0.029       .   A
C526       H530 0.020       .   A
C526       H531 0.020       .   A
N527       N528 0.021       .   A
N528       N529 0.025       .   A
C475       C476 0.025       .   A
C475       C480 0.025       .   A
C476       C477 0.025       .   A
C476       H483 0.020       .   A
C477       C478 0.025       .   A
C477      Cl482 0.032       .   A
C478       C479 0.025       .   A
C478       C481 0.030       .   A
C479       C480 0.025       .   A
C479      Br485 0.035       .   A
C480       H484 0.020       .   A
C481       C486 0.030       .   A
C481       N489 0.027       .   A
C481       H496 0.020       .   A
C486       C487 0.030       .   A
C486       H493 0.020       .   A
C486       H495 0.020       .   A
C487       N488 0.028       .   A
C487       C490 0.030       .   A
C487       H494 0.020       .   A
N488       N489 0.027       .   A
N488       H492 0.019       .   A
N489       H491 0.019       .   A
C490       C497 0.030       .   A
C490       N500 0.021       .   A
C490       H503 0.020       .   A
C497       N498 0.029       .   A
C497       H501 0.020       .   A
C497       H502 0.020       .   A
N498       N499 0.021       .   A
N499       N500 0.025       .   A
C446       C447 0.025       .   A
C446       C451 0.025       .   A
C447       C448 0.025       .   A
C447       H454 0.020       .   A
C448       C449 0.025       .   A
C448      Cl453 0.032       .   A
C449       C450 0.025       .   A
C449       C452 0.030       .   A
C450       C451 0.025       .   A
C450      Br456 0.035       .   A
C451       H455 0.020       .   A
C452       C457 0.030       .   A
C452       N460 0.027       .   A
C452       H467 0.020       .   A
C457       C458 0.030       .   A
C457       H464 0.020       .   A
C457       H466 0.020       .   A
C458       N459 0.028       .   A
C458       C461 0.030       .   A
C458       H465 0.020       .   A
N459       N460 0.027       .   A
N459       H463 0.019       .   A
N460       H462 0.019       .   A
C461       C468 0.030       .   A
C461       N471 0.021       .   A
C461       H474 0.020       .   A
C468       N469 0.029       .   A
C468       H472 0.020       .   A
C468       H473 0.020       .   A
N469       N470 0.021       .   A
N470       N471 0.025       .   A
C417       C418 0.025       .   A
C417       C422 0.025       .   A
C418       C419 0.025       .   A
C418       H425 0.020       .   A
C419       C420 0.025       .   A
C419      Cl424 0.032       .   A
C420       C421 0.025       .   A
C420       C423 0.030       .   A
C421       C422 0.025       .   A
C421      Br427 0.035       .   A
C422       H426 0.020       .   A
C423       C428 0.030       .   A
C423       N431 0.027       .   A
C423       H438 0.020       .   A
C428       C429 0.030       .   A
C428       H435 0.020       .   A
C428       H437 0.020       .   A
C429       N430 0.028       .   A
C429       C432 0.030       .   A
C429       H436 0.020       .   A
N430       N431 0.027       .   A
N430       H434 0.019       .   A
N431       H433 0.019       .   A
C432       C439 0.030       .   A
C432       N442 0.021       .   A
C432       H445 0.020       .   A
C439       N440 0.029       .   A
C439       H443 0.020       .   A
C439       H444 0.020       .   A
N440       N441 0.021       .   A
N441       N442 0.025       .   A
C388       C389 0.025       .   A
C388       C393 0.025       .   A
C389       C390 0.025       .   A
C389       H396 0.020       .   A
C390       C391 0.025       .   A
C390      Cl395 0.032       .   A
C391       C392 0.025       .   A
C391       C394 0.030       .   A
C392       C393 0.025       .   A
C392      Br398 0.035       .   A
C393       H397 0.020       .   A
C394       C399 0.030       .   A
C394       N402 0.027       .   A
C394       H409 0.020       .   A
C399       C400 0.030       .   A
C399       H406 0.020       .   A
C399       H408 0.020       .   A
C400       N401 0.028       .   A
C400       C403 0.030       .   A
C400       H407 0.020       .   A
N401       N402 0.027       .   A
N401       H405 0.019       .   A
N402       H404 0.019       .   A
C403       C410 0.030       .   A
C403       N413 0.021       .   A
C403       H416 0.020       .   A
C410       N411 0.029       .   A
C410       H414 0.020       .   A
C410       H415 0.020       .   A
N411       N412 0.021       .   A
N412       N413 0.025       .   A
C359       C360 0.025       .   A
C359       C364 0.025       .   A
C360       C361 0.025       .   A
C360       H367 0.020       .   A
C361       C362 0.025       .   A
C361      Cl366 0.032       .   A
C362       C363 0.025       .   A
C362       C365 0.030       .   A
C363       C364 0.025       .   A
C363      Br369 0.035       .   A
C364       H368 0.020       .   A
C365       C370 0.030       .   A
C365       N373 0.027       .   A
C365       H380 0.020       .   A
C370       C371 0.030       .   A
C370       H377 0.020       .   A
C370       H379 0.020       .   A
C371       N372 0.028       .   A
C371       C374 0.030       .   A
C371       H378 0.020       .   A
N372       N373 0.027       .   A
N372       H376 0.019       .   A
N373       H375 0.019       .   A
C374       C381 0.030       .   A
C374       N384 0.021       .   A
C374       H387 0.020       .   A
C381       N382 0.029       .   A
C381       H385 0.020       .   A
C381       H386 0.020       .   A
N382       N383 0.021       .   A
N383       N384 0.025       .   A
C330       C331 0.025       .   A
C330       C335 0.025       .   A
C331       C332 0.025       .   A
C331       H338 0.020       .   A
C332       C333 0.025       .   A
C332      Cl337 0.032       .   A
C333       C334 0.025       .   A
C333       C336 0.030       .   A
C334       C335 0.025       .   A
C334      Br340 0.035       .   A
C335       H339 0.020       .   A
C336       C341 0.030       .   A
C336       N344 0.027       .   A
C336       H351 0.020       .   A
C341       C342 0.030       .   A
C341       H348 0.020       .   A
C341       H350 0.020       .   A
C342       N343 0.028       .   A
C342       C345 0.030       .   A
C342       H349 0.020       .   A
N343       N344 0.027       .   A
N343       H347 0.019       .   A
N344       H346 0.019       .   A
C345       C352 0.030       .   A
C345       N355 0.021       .   A
C345       H358 0.020       .   A
C352       N353 0.029       .   A
C352       H356 0.020       .   A
C352       H357 0.020       .   A
N353       N354 0.021       .   A
N354       N355 0.025       .   A
C301       C302 0.025       .   A
C301       C306 0.025       .   A
C302       C303 0.025       .   A
C302       H309 0.020       .   A
C303       C304 0.025       .   A
C303      Cl308 0.032       .   A
C304       C305 0.025       .   A
C304       C307 0.030       .   A
C305       C306 0.025       .   A
C305      Br311 0.035       .   A
C306       H310 0.020       .   A
C307       C312 0.030       .   A
C307       N315 0.027       .   A
C307       H322 0.020       .   A
C312       C313 0.030       .   A
C312       H319 0.020       .   A
C312       H321 0.020       .   A
C313       N314 0.028       .   A
C313       C316 0.030       .   A
C313       H320 0.020       .   A
N314       N315 0.027       .   A
N314       H318 0.019       .   A
N315       H317 0.019       .   A
C316       C323 0.030       .   A
C316       N326 0.021       .   A
C316       H329 0.020       .   A
C323       N324 0.029       .   A
C323       H327 0.020       .   A
C323       H328 0.020       .   A
N324       N325 0.021       .   A
N325       N326 0.025       .   A
C272       C273 0.025       .   A
C272       C277 0.025       .   A
C273       C274 0.025       .   A
C273       H280 0.020       .   A
C274       C275 0.025       .   A
C274      Cl279 0.032       .   A
C275       C276 0.025       .   A
C275       C278 0.030       .   A
C276       C277 0.025       .   A
C276      Br282 0.035       .   A
C277       H281 0.020       .   A
C278       C283 0.030       .   A
C278       N286 0.027       .   A
C278       H293 0.020       .   A
C283       C284 0.030       .   A
C283       H290 0.020       .   A
C283       H292 0.020       .   A
C284       N285 0.028       .   A
C284       C287 0.030       .   A
C284       H291 0.020       .   A
N285       N286 0.027       .   A
N285       H289 0.019       .   A
N286       H288 0.019       .   A
C287       C294 0.030       .   A
C287       N297 0.021       .   A
C287       H300 0.020       .   A
C294       N295 0.029       .   A
C294       H298 0.020       .   A
C294       H299 0.020       .   A
N295       N296 0.021       .   A
N296       N297 0.025       .   A
C243       C244 0.025       .   A
C243       C248 0.025       .   A
C244       C245 0.025       .   A
C244       H251 0.020       .   A
C245       C246 0.025       .   A
C245      Cl250 0.032       .   A
C246       C247 0.025       .   A
C246       C249 0.030       .   A
C247       C248 0.025       .   A
C247      Br253 0.035       .   A
C248       H252 0.020       .   A
C249       C254 0.030       .   A
C249       N257 0.027       .   A
C249       H264 0.020       .   A
C254       C255 0.030       .   A
C254       H261 0.020       .   A
C254       H263 0.020       .   A
C255       N256 0.028       .   A
C255       C258 0.030       .   A
C255       H262 0.020       .   A
N256       N257 0.027       .   A
N256       H260 0.019       .   A
N257       H259 0.019       .   A
C258       C265 0.030       .   A
C258       N268 0.021       .   A
C258       H271 0.020       .   A
C265       N266 0.029       .   A
C265       H269 0.020       .   A
C265       H270 0.020       .   A
N266       N267 0.021       .   A
N267       N268 0.025       .   A
C214       C215 0.025       .   A
C214       C219 0.025       .   A
C215       C216 0.025       .   A
C215       H222 0.020       .   A
C216       C217 0.025       .   A
C216      Cl221 0.032       .   A
C217       C218 0.025       .   A
C217       C220 0.030       .   A
C218       C219 0.025       .   A
C218      Br224 0.035       .   A
C219       H223 0.020       .   A
C220       C225 0.030       .   A
C220       N228 0.027       .   A
C220       H235 0.020       .   A
C225       C226 0.030       .   A
C225       H232 0.020       .   A
C225       H234 0.020       .   A
C226       N227 0.028       .   A
C226       C229 0.030       .   A
C226       H233 0.020       .   A
N227       N228 0.027       .   A
N227       H231 0.019       .   A
N228       H230 0.019       .   A
C229       C236 0.030       .   A
C229       N239 0.021       .   A
C229       H242 0.020       .   A
C236       N237 0.029       .   A
C236       H240 0.020       .   A
C236       H241 0.020       .   A
N237       N238 0.021       .   A
N238       N239 0.025       .   A
C185       C186 0.025       .   A
C185       C190 0.025       .   A
C186       C187 0.025       .   A
C186       H193 0.020       .   A
C187       C188 0.025       .   A
C187      Cl192 0.032       .   A
C188       C189 0.025       .   A
C188       C191 0.030       .   A
C189       C190 0.025       .   A
C189      Br195 0.035       .   A
C190       H194 0.020       .   A
C191       C196 0.030       .   A
C191       N199 0.027       .   A
C191       H206 0.020       .   A
C196       C197 0.030       .   A
C196       H203 0.020       .   A
C196       H205 0.020       .   A
C197       N198 0.028       .   A
C197       C200 0.030       .   A
C197       H204 0.020       .   A
N198       N199 0.027       .   A
N198       H202 0.019       .   A
N199       H201 0.019       .   A
C200       C207 0.030       .   A
C200       N210 0.021       .   A
C200       H213 0.020       .   A
C207       N208 0.029       .   A
C207       H211 0.020       .   A
C207       H212 0.020       .   A
N208       N209 0.021       .   A
N209       N210 0.025       .   A
