data_pcu_v1-6c_Zn_1_Ch_1-63_fer_tobacco
_audit_creation_date              2021-02-03
_audit_creation_method            'tobacco_3.0'
_symmetry_space_group_name_H-M    'P1'
_symmetry_Int_Tables_number       1
_symmetry_cell_setting            triclinic
loop_
_symmetry_equiv_pos_as_xyz
  x,y,z
_cell_length_a                    37.03512172563656
_cell_length_b                    37.03512172563656
_cell_length_c                    37.03512172563656
_cell_angle_alpha                 90.0
_cell_angle_beta                  90.0
_cell_angle_gamma                 90.0
loop_
_atom_site_label
_atom_site_type_symbol
_atom_site_fract_x
_atom_site_fract_y
_atom_site_fract_z
_atom_site_charge
Zn1       Zn   -0.0302739656   -0.0302739656    0.0302739656          1.4972
Zn2       Zn    0.0302739656    0.0302739656    0.0302739656          1.4936
Zn3       Zn    0.0302739656   -0.0302739656   -0.0302739656          1.4911
Zn4       Zn   -0.0302739656    0.0302739656   -0.0302739656          1.4948
O5         O    0.0000000000    0.0000000000    0.0000000000         -2.4586
O6         O   -0.0222491506   -0.0222491506    0.0809123843         -1.3649
O7         O    0.0809123843    0.0222491506    0.0222491506         -1.3631
O8         O    0.0222491506   -0.0809123843   -0.0222491506         -1.3583
O9         O    0.0222491506    0.0222491506    0.0809123843         -1.3651
O10        O   -0.0222491506   -0.0809123843    0.0222491506         -1.3611
O11        O    0.0809123843   -0.0222491506   -0.0222491506         -1.3669
O12        O   -0.0222491506    0.0222491506   -0.0809123843         -1.3608
O13        O    0.0222491506    0.0809123843    0.0222491506         -1.3684
O14        O    0.0222491506   -0.0222491506   -0.0809123843         -1.3623
O15        O   -0.0222491506    0.0809123843   -0.0222491506          -1.367
O16        O   -0.0809123843    0.0222491506   -0.0222491506          -1.366
O17        O   -0.0809123843   -0.0222491506    0.0222491506         -1.3639
C18        C   -0.0000000000   -0.0000000000    0.0967406028           0.154
C19        C    0.0967406028   -0.0000000000   -0.0000000000          0.1589
C20        C   -0.0000000000   -0.0967406028    0.0000000000          0.1485
C21        C    0.0000000000    0.0000000000   -0.0967406028          0.1522
C22        C    0.0000000000    0.0967406028   -0.0000000000          0.1636
C23        C   -0.0967406028    0.0000000000    0.0000000000          0.1541
Zn24      Zn    0.9697260344    0.0302739656    0.5302739656          1.4972
Zn25      Zn    1.0302739656    0.0302739656    0.4697260344          1.4936
Zn26      Zn    1.0302739656   -0.0302739656    0.5302739656          1.4911
Zn27      Zn    0.9697260344   -0.0302739656    0.4697260344          1.4948
O28        O    1.0000000000    0.0000000000    0.5000000000         -2.4586
O29        O    0.9777508494    0.0809123843    0.5222491506         -1.3649
O30        O    1.0809123843    0.0222491506    0.4777508494         -1.3631
O31        O    1.0222491506   -0.0222491506    0.5809123843         -1.3583
O32        O    1.0222491506    0.0809123843    0.4777508494         -1.3651
O33        O    0.9777508494    0.0222491506    0.5809123843         -1.3611
O34        O    1.0809123843   -0.0222491506    0.5222491506         -1.3669
O35        O    0.9777508494   -0.0809123843    0.4777508494         -1.3608
O36        O    1.0222491506    0.0222491506    0.4190876157         -1.3684
O37        O    1.0222491506   -0.0809123843    0.5222491506         -1.3623
O38        O    0.9777508494   -0.0222491506    0.4190876157          -1.367
O39        O    0.9190876157   -0.0222491506    0.4777508494          -1.366
O40        O    0.9190876157    0.0222491506    0.5222491506         -1.3639
C41        C    1.0000000000    0.0967406028    0.5000000000           0.154
C42        C    1.0967406028    0.0000000000    0.5000000000          0.1589
C43        C    1.0000000000    0.0000000000    0.5967406028          0.1485
C44        C    1.0000000000   -0.0967406028    0.5000000000          0.1522
C45        C    1.0000000000    0.0000000000    0.4032593972          0.1636
C46        C    0.9032593972    0.0000000000    0.5000000000          0.1541
Zn47      Zn    0.9697260344    0.4697260344    0.0302739656          1.4972
Zn48      Zn    1.0302739656    0.5302739656    0.0302739656          1.4936
Zn49      Zn    1.0302739656    0.4697260344   -0.0302739656          1.4911
Zn50      Zn    0.9697260344    0.5302739656   -0.0302739656          1.4948
O51        O    1.0000000000    0.5000000000    0.0000000000         -2.4586
O52        O    0.9777508494    0.4777508494    0.0809123843         -1.3649
O53        O    1.0809123843    0.5222491506    0.0222491506         -1.3631
O54        O    1.0222491506    0.4190876157   -0.0222491506         -1.3583
O55        O    1.0222491506    0.5222491506    0.0809123843         -1.3651
O56        O    0.9777508494    0.4190876157    0.0222491506         -1.3611
O57        O    1.0809123843    0.4777508494   -0.0222491506         -1.3669
O58        O    0.9777508494    0.5222491506   -0.0809123843         -1.3608
O59        O    1.0222491506    0.5809123843    0.0222491506         -1.3684
O60        O    1.0222491506    0.4777508494   -0.0809123843         -1.3623
O61        O    0.9777508494    0.5809123843   -0.0222491506          -1.367
O62        O    0.9190876157    0.5222491506   -0.0222491506          -1.366
O63        O    0.9190876157    0.4777508494    0.0222491506         -1.3639
C64        C    1.0000000000    0.5000000000    0.0967406028           0.154
C65        C    1.0967406028    0.5000000000    0.0000000000          0.1589
C66        C    1.0000000000    0.4032593972    0.0000000000          0.1485
C67        C    1.0000000000    0.5000000000   -0.0967406028          0.1522
C68        C    1.0000000000    0.5967406028    0.0000000000          0.1636
C69        C    0.9032593972    0.5000000000    0.0000000000          0.1541
Zn70      Zn    0.9697260344    0.4697260344    0.5302739656          1.4972
Zn71      Zn    1.0302739656    0.4697260344    0.4697260344          1.4936
Zn72      Zn    0.9697260344    0.5302739656    0.4697260344          1.4911
Zn73      Zn    1.0302739656    0.5302739656    0.5302739656          1.4948
O74        O    1.0000000000    0.5000000000    0.5000000000         -2.4586
O75        O    0.9777508494    0.4190876157    0.5222491506         -1.3649
O76        O    1.0222491506    0.4777508494    0.4190876157         -1.3631
O77        O    0.9190876157    0.5222491506    0.4777508494         -1.3583
O78        O    1.0222491506    0.4190876157    0.4777508494         -1.3651
O79        O    0.9190876157    0.4777508494    0.5222491506         -1.3611
O80        O    0.9777508494    0.5222491506    0.4190876157         -1.3669
O81        O    1.0222491506    0.5809123843    0.5222491506         -1.3608
O82        O    1.0809123843    0.4777508494    0.4777508494         -1.3684
O83        O    0.9777508494    0.5809123843    0.4777508494         -1.3623
O84        O    1.0809123843    0.5222491506    0.5222491506          -1.367
O85        O    1.0222491506    0.5222491506    0.5809123843          -1.366
O86        O    0.9777508494    0.4777508494    0.5809123843         -1.3639
C87        C    1.0000000000    0.4032593972    0.5000000000           0.154
C88        C    1.0000000000    0.5000000000    0.4032593972          0.1589
C89        C    0.9032593972    0.5000000000    0.5000000000          0.1485
C90        C    1.0000000000    0.5967406028    0.5000000000          0.1522
C91        C    1.0967406028    0.5000000000    0.5000000000          0.1636
C92        C    1.0000000000    0.5000000000    0.5967406028          0.1541
Zn93      Zn    0.4697260344    0.9697260344   -0.0302739656          1.4972
Zn94      Zn    0.4697260344    1.0302739656    0.0302739656          1.4936
Zn95      Zn    0.5302739656    0.9697260344    0.0302739656          1.4911
Zn96      Zn    0.5302739656    1.0302739656   -0.0302739656          1.4948
O97        O    0.5000000000    1.0000000000    0.0000000000         -2.4586
O98        O    0.4190876157    0.9777508494   -0.0222491506         -1.3649
O99        O    0.4777508494    1.0222491506    0.0809123843         -1.3631
O100       O    0.5222491506    0.9190876157    0.0222491506         -1.3583
O101       O    0.4190876157    1.0222491506    0.0222491506         -1.3651
O102       O    0.4777508494    0.9190876157   -0.0222491506         -1.3611
O103       O    0.5222491506    0.9777508494    0.0809123843         -1.3669
O104       O    0.5809123843    1.0222491506   -0.0222491506         -1.3608
O105       O    0.4777508494    1.0809123843    0.0222491506         -1.3684
O106       O    0.5809123843    0.9777508494    0.0222491506         -1.3623
O107       O    0.5222491506    1.0809123843   -0.0222491506          -1.367
O108       O    0.5222491506    1.0222491506   -0.0809123843          -1.366
O109       O    0.4777508494    0.9777508494   -0.0809123843         -1.3639
C110       C    0.4032593972    1.0000000000    0.0000000000           0.154
C111       C    0.5000000000    1.0000000000    0.0967406028          0.1589
C112       C    0.5000000000    0.9032593972    0.0000000000          0.1485
C113       C    0.5967406028    1.0000000000    0.0000000000          0.1522
C114       C    0.5000000000    1.0967406028    0.0000000000          0.1636
C115       C    0.5000000000    1.0000000000   -0.0967406028          0.1541
Zn116     Zn    0.4697260344    1.0302739656    0.5302739656          1.4972
Zn117     Zn    0.4697260344    0.9697260344    0.4697260344          1.4936
Zn118     Zn    0.5302739656    1.0302739656    0.4697260344          1.4911
Zn119     Zn    0.5302739656    0.9697260344    0.5302739656          1.4948
O120       O    0.5000000000    1.0000000000    0.5000000000         -2.4586
O121       O    0.4190876157    1.0222491506    0.5222491506         -1.3649
O122       O    0.4777508494    0.9777508494    0.4190876157         -1.3631
O123       O    0.5222491506    1.0809123843    0.4777508494         -1.3583
O124       O    0.4190876157    0.9777508494    0.4777508494         -1.3651
O125       O    0.4777508494    1.0809123843    0.5222491506         -1.3611
O126       O    0.5222491506    1.0222491506    0.4190876157         -1.3669
O127       O    0.5809123843    0.9777508494    0.5222491506         -1.3608
O128       O    0.4777508494    0.9190876157    0.4777508494         -1.3684
O129       O    0.5809123843    1.0222491506    0.4777508494         -1.3623
O130       O    0.5222491506    0.9190876157    0.5222491506          -1.367
O131       O    0.5222491506    0.9777508494    0.5809123843          -1.366
O132       O    0.4777508494    1.0222491506    0.5809123843         -1.3639
C133       C    0.4032593972    1.0000000000    0.5000000000           0.154
C134       C    0.5000000000    1.0000000000    0.4032593972          0.1589
C135       C    0.5000000000    1.0967406028    0.5000000000          0.1485
C136       C    0.5967406028    1.0000000000    0.5000000000          0.1522
C137       C    0.5000000000    0.9032593972    0.5000000000          0.1636
C138       C    0.5000000000    1.0000000000    0.5967406028          0.1541
Zn139     Zn    0.4697260344    0.5302739656   -0.0302739656          1.4972
Zn140     Zn    0.4697260344    0.4697260344    0.0302739656          1.4936
Zn141     Zn    0.5302739656    0.4697260344   -0.0302739656          1.4911
Zn142     Zn    0.5302739656    0.5302739656    0.0302739656          1.4948
O143       O    0.5000000000    0.5000000000    0.0000000000         -2.4586
O144       O    0.4190876157    0.5222491506   -0.0222491506         -1.3649
O145       O    0.4777508494    0.4190876157    0.0222491506         -1.3631
O146       O    0.5222491506    0.4777508494   -0.0809123843         -1.3583
O147       O    0.4190876157    0.4777508494    0.0222491506         -1.3651
O148       O    0.4777508494    0.5222491506   -0.0809123843         -1.3611
O149       O    0.5222491506    0.4190876157   -0.0222491506         -1.3669
O150       O    0.5809123843    0.5222491506    0.0222491506         -1.3608
O151       O    0.4777508494    0.4777508494    0.0809123843         -1.3684
O152       O    0.5809123843    0.4777508494   -0.0222491506         -1.3623
O153       O    0.5222491506    0.5222491506    0.0809123843          -1.367
O154       O    0.5222491506    0.5809123843    0.0222491506          -1.366
O155       O    0.4777508494    0.5809123843   -0.0222491506         -1.3639
C156       C    0.4032593972    0.5000000000    0.0000000000           0.154
C157       C    0.5000000000    0.4032593972    0.0000000000          0.1589
C158       C    0.5000000000    0.5000000000   -0.0967406028          0.1485
C159       C    0.5967406028    0.5000000000    0.0000000000          0.1522
C160       C    0.5000000000    0.5000000000    0.0967406028          0.1636
C161       C    0.5000000000    0.5967406028    0.0000000000          0.1541
Zn162     Zn    0.4697260344    0.5302739656    0.4697260344          1.4972
Zn163     Zn    0.4697260344    0.4697260344    0.5302739656          1.4936
Zn164     Zn    0.5302739656    0.4697260344    0.4697260344          1.4911
Zn165     Zn    0.5302739656    0.5302739656    0.5302739656          1.4948
O166       O    0.5000000000    0.5000000000    0.5000000000         -2.4586
O167       O    0.4190876157    0.5222491506    0.4777508494         -1.3649
O168       O    0.4777508494    0.4190876157    0.5222491506         -1.3631
O169       O    0.5222491506    0.4777508494    0.4190876157         -1.3583
O170       O    0.4190876157    0.4777508494    0.5222491506         -1.3651
O171       O    0.4777508494    0.5222491506    0.4190876157         -1.3611
O172       O    0.5222491506    0.4190876157    0.4777508494         -1.3669
O173       O    0.5809123843    0.5222491506    0.5222491506         -1.3608
O174       O    0.4777508494    0.4777508494    0.5809123843         -1.3684
O175       O    0.5809123843    0.4777508494    0.4777508494         -1.3623
O176       O    0.5222491506    0.5222491506    0.5809123843          -1.367
O177       O    0.5222491506    0.5809123843    0.5222491506          -1.366
O178       O    0.4777508494    0.5809123843    0.4777508494         -1.3639
C179       C    0.4032593972    0.5000000000    0.5000000000           0.154
C180       C    0.5000000000    0.4032593972    0.5000000000          0.1589
C181       C    0.5000000000    0.5000000000    0.4032593972          0.1485
C182       C    0.5967406028    0.5000000000    0.5000000000          0.1522
C183       C    0.5000000000    0.5000000000    0.5967406028          0.1636
C184       C    0.5000000000    0.5967406028    0.5000000000          0.1541
C668       C    0.5000000000    0.5000000000   -0.1383227531          0.3756
C669       C    0.4989989487    0.4717405762   -0.1610695640          0.3767
C670       C    0.4984119848    0.4797532416   -0.1967560387          0.3778
C671       C    0.4984220186    0.5119736649   -0.2133141169          0.3782
C672       C    0.4981531397    0.5392335626   -0.1891840561          0.3781
C673       C    0.4986540860    0.5334436682   -0.1528930060          0.3771
C674       C    0.4982177969    0.5148752089   -0.2501640844           0.379
O675       O    0.4975679099    0.4501575854   -0.2121682147          0.3787
C676       C    0.4972761401    0.4314437175   -0.1453882746          0.3779
H677       H    0.4987500796    0.5564328218   -0.1347419767          0.3768
H678       H    0.4975870619    0.5669532997   -0.1988163282          0.3788
C679       C    0.4872864026    0.3962295058   -0.1667701674         -0.6133
H680       H    0.4608774032    0.3981540665   -0.1797697867         -0.5904
H681       H    0.5075986836    0.3897469782   -0.1872859388          0.3695
H682       H    0.4866832781    0.3730150055   -0.1485761975         -0.6131
H683       H    0.4780401269    0.4310678924   -0.1229968707         -0.6059
H684       H    0.5238155285    0.4248418223   -0.1344100314          0.3548
C685       C    0.4987168066    0.5104634985   -0.2840209454           0.379
C686       C    0.4993560637    0.5051477176   -0.3227690314          0.3791
H687       H    0.4964731825    0.4457116925   -0.1842826072          0.3792
C688       C    0.5000000000    0.5000000000   -0.3616772469          0.3791
C647       C    0.5000000000    0.5000000000    0.3616772469          0.3756
C648       C    0.4992846083    0.4717319022    0.3389304360          0.3767
C649       C    0.4986166931    0.4797382262    0.3032439613          0.3778
C650       C    0.4983010854    0.5119571053    0.2866858831          0.3782
C651       C    0.4977567137    0.5392128932    0.3108159439          0.3781
C652       C    0.4983161509    0.5334283574    0.3471069940          0.3771
C653       C    0.4980675492    0.5148564371    0.2498359156           0.379
O654       O    0.4980717745    0.4501355507    0.2878317853          0.3787
C655       C    0.4979691543    0.4314196898    0.3546117254          0.3779
H656       H    0.4981797960    0.5564173071    0.3652580233          0.3768
H657       H    0.4969105108    0.5669254934    0.3011836718          0.3788
C658       C    0.4883358252    0.3961063137    0.3332298326         -0.6133
H659       H    0.4619087237    0.3977638693    0.3202302133         -0.5904
H660       H    0.5087125855    0.3898294066    0.3127140612          0.3695
H661       H    0.4879673526    0.3728869035    0.3514238025         -0.6131
H662       H    0.4787379219    0.4308494720    0.3770031293         -0.6059
H663       H    0.5245739105    0.4250863564    0.3655899686          0.3548
C664       C    0.4986111211    0.5104499953    0.2159790546           0.379
C665       C    0.4993040703    0.5051409467    0.1772309686          0.3791
H666       H    0.4970220362    0.4456788208    0.3157173928          0.3792
C667       C    0.5000000000    0.5000000000    0.1383227531          0.3791
C626       C    0.5000000000    0.8616772469    0.5000000000          0.3756
C627       C    0.5028437940    0.8389304360    0.5281337870          0.3767
C628       C    0.5011747225    0.8032439613    0.5202749364          0.3778
C629       C    0.4968114650    0.7866858831    0.4883513124          0.3782
C630       C    0.4928451557    0.8108159439    0.4613801666          0.3781
C631       C    0.4941273144    0.8471069940    0.4670484904          0.3771
C632       C    0.4962153137    0.7498359156    0.4855043373           0.379
O633       O    0.5043554037    0.7878317853    0.5497112846          0.3787
C634       C    0.5066063209    0.8546117254    0.5682915793          0.3779
H635       H    0.4911021586    0.8652580233    0.4442590447          0.3768
H636       H    0.4885219849    0.8011836718    0.4339937747          0.3788
C637       C    0.5014885643    0.8332298326    0.6045358083         -0.6133
H638       H    0.4750627326    0.8202302133    0.6062134853         -0.5904
H639       H    0.5224927371    0.8127140612    0.6082014121          0.3695
H640       H    0.5040418678    0.8514238025    0.6276173468         -0.6131
H641       H    0.4875993237    0.8770031293    0.5712747831         -0.6059
H642       H    0.5337961782    0.8655899686    0.5712302563          0.3548
C643       C    0.4973084962    0.7159790546    0.4898074933           0.379
C644       C    0.4986633355    0.6772309686    0.4949873182          0.3791
H645       H    0.5038742368    0.8157173928    0.5542646207          0.3792
C646       C    0.5000000000    0.6383227531    0.5000000000          0.3791
C605       C    0.5000000000    1.1383227531    0.5000000000          0.3756
C606       C    0.4717405762    1.1610695640    0.5010010513          0.3767
C607       C    0.4797532416    1.1967560387    0.5015880152          0.3778
C608       C    0.5119736649    1.2133141169    0.5015779814          0.3782
C609       C    0.5392335626    1.1891840561    0.5018468603          0.3781
C610       C    0.5334436682    1.1528930060    0.5013459140          0.3771
C611       C    0.5148752089    1.2501640844    0.5017822031           0.379
O612       O    0.4501575854    1.2121682147    0.5024320901          0.3787
C613       C    0.4314437175    1.1453882746    0.5027238599          0.3779
H614       H    0.5564328218    1.1347419767    0.5012499204 0.37920000000000004
H615       H    0.5669532997    1.1988163282    0.5024129381          0.3788
C616       C    0.3962295058    1.1667701674    0.5127135974         -0.6133
H617       H    0.3981540665    1.1797697867    0.5391225968         -0.5904
H618       H    0.3897469782    1.1872859388    0.4924013164          0.3695
H619       H    0.3730150055    1.1485761975    0.5133167219         -0.6131
H620       H    0.4310678924    1.1229968707    0.5219598731         -0.6059
H621       H    0.4248418223    1.1344100314    0.4761844715          0.3548
C622       C    0.5104634985    1.2840209454    0.5012831934           0.379
C623       C    0.5051477176    1.3227690314    0.5006439363          0.3791
H624       H    0.4457116925    1.1842826072    0.5035268175          0.3792
C625       C    0.5000000000    1.3616772469    0.5000000000          0.3791
C584       C    0.5000000000    0.8616772469    0.0000000000          0.3756
C585       C    0.4919671333    0.8389304360    0.0271121779          0.3767
C586       C    0.4934016090    0.8032439613    0.0192071407          0.3778
C587       C    0.5014649883    0.7866858831   -0.0119880143          0.3782
C588       C    0.5080183989    0.8108159439   -0.0384498193          0.3781
C589       C    0.5070562293    0.8471069940   -0.0327184971          0.3771
C590       C    0.5019925052    0.7498359156   -0.0148485020           0.379
O591       O    0.4851867374    0.7878317853    0.0476523726          0.3787
C592       C    0.4802265996    0.8546117254    0.0656992840          0.3779
H593       H    0.5128954355    0.8652580233   -0.0549539209          0.3768
H594       H    0.5143989838    0.8011836718   -0.0654311537          0.3788
C595       C    0.4617519853    0.8332298326    0.0972987174         -0.6133
H596       H    0.4366623306    0.8202302133    0.0888341791         -0.5904
H597       H    0.4797991597    0.8127140612    0.1086526339          0.3695
H598       H    0.4553654193    0.8514238025    0.1196255747         -0.6131
H599       H    0.4615072482    0.8770031293    0.0612550369         -0.6059
H600       H    0.5042733802    0.8655899686    0.0787252774          0.3548
C601       C    0.5013729449    0.7159790546   -0.0104521006           0.379
C602       C    0.5006632029    0.6772309686   -0.0051452709          0.3791
H603       H    0.4830154853    0.8157173928    0.0516835083          0.3792
C604       C    0.5000000000    0.6383227531    0.0000000000          0.3791
C563       C    0.5000000000    1.1383227531    0.0000000000          0.3756
C564       C    0.5184866838    1.1610695640   -0.0213971881          0.3767
C565       C    0.5126066127    1.1967560387   -0.0159225103          0.3778
C566       C    0.4906993794    1.2133141169    0.0077043581          0.3782
C567       C    0.4719615629    1.1891840561    0.0275050790          0.3781
C568       C    0.4762667679    1.1528930060    0.0236013584          0.3771
C569       C    0.4885761959    1.2501640844    0.0096925120           0.379
O570       O    0.5321172052    1.2121682147   -0.0381924926          0.3787
C571       C    0.5446314760    1.1453882746   -0.0521096405          0.3779
H572       H    0.4607011600    1.1347419767    0.0405194627          0.3768
H573       H    0.4526931188    1.1988163282    0.0474407590          0.3788
C574       C    0.5612590332    1.1667701674   -0.0847188402         -0.6133
H575       H    0.5405902271    1.1797697867   -0.1012699621         -0.5904
H576       H    0.5805585592    1.1872859388   -0.0756557159          0.3695
H577       H    0.5766061438    1.1485761975   -0.1021470638         -0.6131
H578       H    0.5307856174    1.1229968707   -0.0654684446         -0.6059
H579       H    0.5685771372    1.1344100314   -0.0388986803          0.3548
C580       C    0.4919426151    1.2840209454    0.0067977890           0.379
C581       C    0.4960267462    1.3227690314    0.0033357016          0.3791
H582       H    0.5343385418    1.1842826072   -0.0421962477          0.3792
C583       C    0.5000000000    1.3616772469    0.0000000000          0.3791
C542       C    0.5000000000    1.0000000000   -0.3616772469          0.3756
C543       C    0.4717319022    0.9992846083   -0.3389304360          0.3767
C544       C    0.4797382262    0.9986166931   -0.3032439613          0.3778
C545       C    0.5119571053    0.9983010854   -0.2866858831          0.3782
C546       C    0.5392128932    0.9977567137   -0.3108159439          0.3781
C547       C    0.5334283574    0.9983161509   -0.3471069940          0.3771
C548       C    0.5148564371    0.9980675492   -0.2498359156           0.379
O549       O    0.4501355507    0.9980717745   -0.2878317853          0.3787
C550       C    0.4314196898    0.9979691543   -0.3546117254          0.3779
H551       H    0.5564173071    0.9981797960   -0.3652580233          0.3768
H552       H    0.5669254934    0.9969105108   -0.3011836718          0.3788
C553       C    0.3961063137    0.9883358252   -0.3332298326         -0.6133
H554       H    0.3977638693    0.9619087237   -0.3202302133         -0.5904
H555       H    0.3898294066    1.0087125855   -0.3127140612          0.3695
H556       H    0.3728869035    0.9879673526   -0.3514238025         -0.6131
H557       H    0.4308494720    0.9787379219   -0.3770031293         -0.6059
H558       H    0.4250863564    1.0245739105   -0.3655899686          0.3548
C559       C    0.5104499953    0.9986111211   -0.2159790546           0.379
C560       C    0.5051409467    0.9993040703   -0.1772309686          0.3791
H561       H    0.4456788208    0.9970220362   -0.3157173928          0.3792
C562       C    0.5000000000    1.0000000000   -0.1383227531          0.3791
C521       C    0.5000000000    1.0000000000    0.1383227531          0.3756
C522       C    0.5007153917    0.9717319022    0.1610695640          0.3767
C523       C    0.5013833069    0.9797382262    0.1967560387          0.3778
C524       C    0.5016989146    1.0119571053    0.2133141169          0.3782
C525       C    0.5022432863    1.0392128932    0.1891840561          0.3781
C526       C    0.5016838491    1.0334283574    0.1528930060          0.3771
C527       C    0.5019324508    1.0148564371    0.2501640844           0.379
O528       O    0.5019282255    0.9501355507    0.2121682147          0.3787
C529       C    0.5020308457    0.9314196898    0.1453882746          0.3779
H530       H    0.5018202040    1.0564173071    0.1347419767          0.3768
H531       H    0.5030894892    1.0669254934    0.1988163282          0.3788
C532       C    0.5116641748    0.8961063137    0.1667701674         -0.6133
H533       H    0.5380912763    0.8977638693    0.1797697867         -0.5904
H534       H    0.4912874145    0.8898294066    0.1872859388          0.3695
H535       H    0.5120326474    0.8728869035    0.1485761975         -0.6131
H536       H    0.5212620781    0.9308494720    0.1229968707         -0.6059
H537       H    0.4754260895    0.9250863564    0.1344100314          0.3548
C538       C    0.5013888789    1.0104499953    0.2840209454           0.379
C539       C    0.5006959297    1.0051409467    0.3227690314          0.3791
H540       H    0.5029779638    0.9456788208    0.1842826072          0.3792
C541       C    0.5000000000    1.0000000000    0.3616772469          0.3791
C500       C    0.8616772469    0.5000000000    0.5000000000          0.3756
C501       C    0.8389304360    0.4803421174    0.5203264554          0.3767
C502       C    0.8032439613    0.4865200401    0.5151902501          0.3778
C503       C    0.7866858831    0.5097181634    0.4928295065          0.3782
C504       C    0.8108159439    0.5295372269    0.4741110921          0.3781
C505       C    0.8471069940    0.5250198158    0.4777671585          0.3771
C506       C    0.7498359156    0.5119495322    0.4909635866           0.379
O507       O    0.7878317853    0.4657909004    0.5363306876          0.3787
C508       C    0.8546117254    0.4525156309    0.5495239131          0.3779
H509       H    0.8652580233    0.5415099609    0.4617488716          0.3768
H510       H    0.8011836718    0.5498936532    0.4552876976          0.3788
C511       C    0.8332298326    0.4340849920    0.5811490157         -0.6133
H512       H    0.8202302133    0.4537927907    0.5988335245         -0.5904
H513       H    0.8127140612    0.4153242662    0.5710175254          0.3695
H514       H    0.8514238025    0.4177843841    0.5976888756         -0.6131
H515       H    0.8770031293    0.4655903039    0.5636383870         -0.6059
H516       H    0.8655899686    0.4293487653    0.5349904861          0.3548
C517       C    0.7159790546    0.5084260299    0.4936649069           0.379
C518       C    0.6772309686    0.5041541187    0.4968924369          0.3791
H519       H    0.8157173928    0.4633484646    0.5402035288          0.3792
C520       C    0.6383227531    0.5000000000    0.5000000000          0.3791
C479       C    1.1383227531    0.5000000000    0.5000000000          0.3756
C480       C    1.1610695640    0.5203264554    0.4803421174          0.3767
C481       C    1.1967560387    0.5151902501    0.4865200401          0.3778
C482       C    1.2133141169    0.4928295065    0.5097181634          0.3782
C483       C    1.1891840561    0.4741110921    0.5295372269          0.3781
C484       C    1.1528930060    0.4777671585    0.5250198158          0.3771
C485       C    1.2501640844    0.4909635866    0.5119495322           0.379
O486       O    1.2121682147    0.5363306876    0.4657909004          0.3787
C487       C    1.1453882746    0.5495239131    0.4525156309          0.3779
H488       H    1.1347419767    0.4617488716    0.5415099609          0.3768
H489       H    1.1988163282    0.4552876976    0.5498936532          0.3788
C490       C    1.1667701674    0.5811490157    0.4340849920         -0.6133
H491       H    1.1797697867    0.5988335245    0.4537927907         -0.5904
H492       H    1.1872859388    0.5710175254    0.4153242662          0.3695
H493       H    1.1485761975    0.5976888756    0.4177843841         -0.6131
H494       H    1.1229968707    0.5636383870    0.4655903039         -0.6059
H495       H    1.1344100314    0.5349904861    0.4293487653          0.3548
C496       C    1.2840209454    0.4936649069    0.5084260299           0.379
C497       C    1.3227690314    0.4968924369    0.5041541187          0.3791
H498       H    1.1842826072    0.5402035288    0.4633484646          0.3792
C499       C    1.3616772469    0.5000000000    0.5000000000          0.3791
C458       C    0.8616772469    0.5000000000    0.0000000000          0.3756
C459       C    0.8389304360    0.4960322805    0.0279973988          0.3767
C460       C    0.8032439613    0.4980146067    0.0202116608          0.3778
C461       C    0.7866858831    0.5036522801   -0.0115117126          0.3782
C462       C    0.8108159439    0.5086950742   -0.0383024674          0.3781
C463       C    0.8471069940    0.5071870383   -0.0326900123          0.3771
C464       C    0.7498359156    0.5043619190   -0.0143325417           0.379
O465       O    0.7878317853    0.4936581281    0.0494970910          0.3787
C466       C    0.8546117254    0.4906652397    0.0679723880          0.3779
H467       H    0.8652580233    0.5111220384   -0.0553400934          0.3768
H468       H    0.8011836718    0.5141110662   -0.0654938503          0.3788
C469       C    0.8332298326    0.4943280257    0.1043924314         -0.6133
H470       H    0.8202302133    0.5206655182    0.1071265985         -0.5904
H471       H    0.8127140612    0.4731939532    0.1072142932          0.3695
H472       H    0.8514238025    0.4908528072    0.1273532598         -0.6131
H473       H    0.8770031293    0.5095375835    0.0717140571         -0.6059
H474       H    0.8655899686    0.4633795399    0.0698202906          0.3548
C475       C    0.7159790546    0.5030973559   -0.0100765953           0.379
C476       C    0.6772309686    0.5015362524   -0.0049551568          0.3791
H477       H    0.8157173928    0.4939566378    0.0540660388          0.3792
C478       C    0.6383227531    0.5000000000    0.0000000000          0.3791
C437       C    1.1383227531    0.5000000000    0.0000000000          0.3756
C438       C    1.1610695640    0.5237243286   -0.0153867921          0.3767
C439       C    1.1967560387    0.5174969493   -0.0103106636          0.3778
C440       C    1.2133141169    0.4910961067    0.0081596177          0.3782
C441       C    1.1891840561    0.4689189020    0.0240135103          0.3781
C442       C    1.1528930060    0.4733747106    0.0202826129          0.3771
C443       C    1.2501640844    0.4888362731    0.0099909604           0.379
O444       O    1.2121682147    0.5422258980   -0.0265923842          0.3787
C445       C    1.1453882746    0.5577236975   -0.0370858198          0.3779
H446       H    1.1347419767    0.4544868596    0.0333883172          0.3768
H447       H    1.1988163282    0.4465354395    0.0403745884          0.3788
C448       C    1.1667701674    0.5923004499   -0.0490976373         -0.6133
H449       H    1.1797697867    0.6058694762   -0.0263595480         -0.5904
H450       H    1.1872859388    0.5859618112   -0.0694552792          0.3695
H451       H    1.1485761975    0.6116637466   -0.0619171350         -0.6131
H452       H    1.1229968707    0.5690634810   -0.0215431444         -0.6059
H453       H    1.1344100314    0.5479115822   -0.0626131885          0.3548
C454       C    1.2840209454    0.4921641789    0.0070520417           0.379
C455       C    1.3227690314    0.4961522702    0.0034797451          0.3791
H456       H    1.1842826072    0.5464958188   -0.0282453113          0.3792
C457       C    1.3616772469    0.5000000000    0.0000000000          0.3791
C416       C    1.0000000000    0.5000000000   -0.1383227531          0.3756
C417       C    1.0282594238    0.4989989487   -0.1610695640          0.3767
C418       C    1.0202467584    0.4984119848   -0.1967560387          0.3778
C419       C    0.9880263351    0.4984220186   -0.2133141169          0.3782
C420       C    0.9607664374    0.4981531397   -0.1891840561          0.3781
C421       C    0.9665563318    0.4986540860   -0.1528930060          0.3771
C422       C    0.9851247911    0.4982177969   -0.2501640844           0.379
O423       O    1.0498424146    0.4975679099   -0.2121682147          0.3787
C424       C    1.0685562825    0.4972761401   -0.1453882746          0.3779
H425       H    0.9435671782    0.4987500796   -0.1347419767          0.3768
H426       H    0.9330467003    0.4975870619   -0.1988163282          0.3788
C427       C    1.1037704942    0.4872864026   -0.1667701674         -0.6133
H428       H    1.1018459335    0.4608774032   -0.1797697867         -0.5904
H429       H    1.1102530218    0.5075986836   -0.1872859388          0.3695
H430       H    1.1269849945    0.4866832781   -0.1485761975         -0.6131
H431       H    1.0689321076    0.4780401269   -0.1229968707         -0.6059
H432       H    1.0751581777    0.5238155285   -0.1344100314          0.3548
C433       C    0.9895365015    0.4987168066   -0.2840209454           0.379
C434       C    0.9948522824    0.4993560637   -0.3227690314          0.3791
H435       H    1.0542883075    0.4964731825   -0.1842826072          0.3792
C436       C    1.0000000000    0.5000000000   -0.3616772469          0.3791
C395       C    1.0000000000    0.5000000000    0.1383227531          0.3756
C396       C    0.9992846083    0.5282680978    0.1610695640          0.3767
C397       C    0.9986166931    0.5202617738    0.1967560387          0.3778
C398       C    0.9983010854    0.4880428947    0.2133141169          0.3782
C399       C    0.9977567137    0.4607871068    0.1891840561          0.3781
C400       C    0.9983161509    0.4665716426    0.1528930060          0.3771
C401       C    0.9980675492    0.4851435629    0.2501640844           0.379
O402       O    0.9980717745    0.5498644493    0.2121682147          0.3787
C403       C    0.9979691543    0.5685803102    0.1453882746          0.3779
H404       H    0.9981797960    0.4435826929    0.1347419767          0.3768
H405       H    0.9969105108    0.4330745066    0.1988163282          0.3788
C406       C    0.9883358252    0.6038936863    0.1667701674         -0.6133
H407       H    0.9619087237    0.6022361307    0.1797697867         -0.5904
H408       H    1.0087125855    0.6101705934    0.1872859388          0.3695
H409       H    0.9879673526    0.6271130965    0.1485761975         -0.6131
H410       H    0.9787379219    0.5691505280    0.1229968707         -0.6059
H411       H    1.0245739105    0.5749136436    0.1344100314          0.3548
C412       C    0.9986111211    0.4895500047    0.2840209454           0.379
C413       C    0.9993040703    0.4948590533    0.3227690314          0.3791
H414       H    0.9970220362    0.5543211792    0.1842826072          0.3792
C415       C    1.0000000000    0.5000000000    0.3616772469          0.3791
C374       C    1.0000000000   -0.1383227531    0.5000000000          0.3756
C375       C    1.0282594238   -0.1610695640    0.5010010513          0.3767
C376       C    1.0202467584   -0.1967560387    0.5015880152          0.3778
C377       C    0.9880263351   -0.2133141169    0.5015779814          0.3782
C378       C    0.9607664374   -0.1891840561    0.5018468603          0.3781
C379       C    0.9665563318   -0.1528930060    0.5013459140          0.3771
C380       C    0.9851247911   -0.2501640844    0.5017822031           0.379
O381       O    1.0498424146   -0.2121682147    0.5024320901          0.3787
C382       C    1.0685562825   -0.1453882746    0.5027238599          0.3779
H383       H    0.9435671782   -0.1347419767    0.5012499204          0.3768
H384       H    0.9330467003   -0.1988163282    0.5024129381          0.3788
C385       C    1.1037704942   -0.1667701674    0.5127135974         -0.6133
H386       H    1.1018459335   -0.1797697867    0.5391225968         -0.5904
H387       H    1.1102530218   -0.1872859388    0.4924013164          0.3695
H388       H    1.1269849945   -0.1485761975    0.5133167219         -0.6131
H389       H    1.0689321076   -0.1229968707    0.5219598731         -0.6059
H390       H    1.0751581777   -0.1344100314    0.4761844715          0.3548
C391       C    0.9895365015   -0.2840209454    0.5012831934           0.379
C392       C    0.9948522824   -0.3227690314    0.5006439363          0.3791
H393       H    1.0542883075   -0.1842826072    0.5035268175          0.3792
C394       C    1.0000000000   -0.3616772469    0.5000000000          0.3791
C353       C    1.0000000000    0.1383227531    0.5000000000          0.3756
C354       C    1.0002981644    0.1610695640    0.4717244233          0.3767
C355       C    0.9993437407    0.1967560387    0.4797016665          0.3778
C356       C    0.9978736478    0.2133141169    0.5118885366          0.3782
C357       C    0.9963528093    0.1891840561    0.5391073053          0.3781
C358       C    0.9971191982    0.1528930060    0.5333465351          0.3771
C359       C    0.9975363528    0.2501640844    0.5147776362           0.379
O360       O    0.9998600985    0.2121682147    0.4500984791          0.3787
C361       C    1.0004282994    0.1453882746    0.4313909638          0.3779
H362       H    0.9961590331    0.1347419767    0.5563158295          0.3768
H363       H    0.9945139619    0.1988163282    0.5667717755          0.3788
C364       C    0.9920667502    0.1667701674    0.3957550261         -0.6133
H365       H    0.9655972211    0.1797697867    0.3964643996         -0.5904
H366       H    1.0126553774    0.1872859388    0.3902124314          0.3695
H367       H    0.9925306716    0.1485761975    0.3725373269         -0.6131
H368       H    0.9812298575    0.1229968707    0.4301318869         -0.6059
H369       H    1.0272429436    0.1344100314    0.4260151833          0.3548
C370       C    0.9982374974    0.2840209454    0.5103935061           0.379
C371       C    0.9991202717    0.3227690314    0.5051127027          0.3791
H372       H    0.9989707587    0.1842826072    0.4456069909          0.3792
C373       C    1.0000000000    0.3616772469    0.5000000000          0.3791
C332       C    0.6383227531   -0.0000000000    0.5000000000          0.3756
C333       C    0.6610695640    0.0201054677    0.4801161546          0.3767
C334       C    0.6967560387    0.0150386345    0.4863510993          0.3778
C335       C    0.7133141169   -0.0070614247    0.5097977017          0.3782
C336       C    0.6891840561   -0.0255571503    0.5298247446          0.3781
C337       C    0.6528930060   -0.0219518039    0.5252667515          0.3771
C338       C    0.7501640844   -0.0089022879    0.5120497866           0.379
O339       O    0.7121682147    0.0359460599    0.4653869658          0.3787
C340       C    0.6453882746    0.0489900824    0.4519650636          0.3779
H341       H    0.6347419767   -0.0377847783    0.5419349044          0.3768
H342       H    0.6988163282   -0.0441518434    0.5503902901          0.3788
C343       C    0.6667701674    0.0804072085    0.4331820993         -0.6133
H344       H    0.6797697867    0.0983108885    0.4526910056         -0.5904
H345       H    0.6872859388    0.0700666607    0.4145357861          0.3695
H346       H    0.6485761975    0.0967638418    0.4166976421         -0.6131
H347       H    0.6229968707    0.0632498114    0.4648811612         -0.6059
H348       H    0.6344100314    0.0341986250    0.4289620867          0.3548
C349       C    0.7840209454   -0.0062405189    0.5084963115           0.379
C350       C    0.8227690314   -0.0030609380    0.5041885928          0.3791
H351       H    0.6842826072    0.0397913599    0.4629013955          0.3792
C352       C    0.8616772469   -0.0000000000    0.5000000000          0.3791
C311       C    1.1383227531   -0.0000000000    0.5000000000          0.3756
C312       C    1.1610695640   -0.0269582708    0.4914648506          0.3767
C313       C    1.1967560387   -0.0190812463    0.4930459324          0.3778
C314       C    1.2133141169    0.0119587301    0.5016874395          0.3782
C315       C    1.1891840561    0.0382942244    0.5087313060          0.3781
C316       C    1.1528930060    0.0325817657    0.5076628304          0.3771
C317       C    1.2501640844    0.0148089243    0.5022680053           0.379
O318       O    1.2121682147   -0.0473689599    0.4843040451          0.3787
C319       C    1.1453882746   -0.0653206114    0.4790095018          0.3779
H320       H    1.1347419767    0.0547048761    0.5139141013          0.3768
H321       H    1.1988163282    0.0651523691    0.5156120280          0.3788
C322       C    1.1667701674   -0.0965713845    0.4599510460         -0.6133
H323       H    1.1797697867   -0.0876422110    0.4350229686         -0.5904
H324       H    1.1872859388   -0.1082586081    0.4777841817          0.3695
H325       H    1.1485761975   -0.1187757442    0.4531508111         -0.6131
H326       H    1.1229968707   -0.0605293776    0.4603759426         -0.6059
H327       H    1.1344100314   -0.0787910792    0.5028101458          0.3548
C328       C    1.2840209454    0.0104247914    0.5015668790           0.379
C329       C    1.3227690314    0.0051320625    0.5007586733          0.3791
H330       H    1.1842826072   -0.0513590642    0.4820582804          0.3792
C331       C    1.3616772469   -0.0000000000    0.5000000000          0.3791
C290       C   -0.0000000000   -0.3616772469    0.0000000000          0.3756
C291       C    0.0148941784   -0.3389304360   -0.0240366509          0.3767
C292       C    0.0099475763   -0.3032439613   -0.0177058957          0.3778
C293       C   -0.0079742293   -0.2866858831    0.0090703001          0.3782
C294       C   -0.0233673199   -0.3108159439    0.0315697907          0.3781
C295       C   -0.0197291222   -0.3471069940    0.0270379763          0.3771
C296       C   -0.0097585708   -0.2498359156    0.0113674265           0.379
O297       O    0.0257157715   -0.2878317853   -0.0427654119          0.3787
C298       C    0.0358873156   -0.3546117254   -0.0584763531          0.3779
H299       H   -0.0324424557   -0.3652580233    0.0461921286          0.3768
H300       H   -0.0392632339   -0.3011836718    0.0542859565          0.3788
C301       C    0.0471833942   -0.3332298326   -0.0932935064         -0.6133
H302       H    0.0241702662   -0.3202302133   -0.1063906480         -0.5904
H303       H    0.0676674467   -0.3127140612   -0.0873761150          0.3695
H304       H    0.0596007755   -0.3514238025   -0.1129171000         -0.6131
H305       H    0.0201140513   -0.3770031293   -0.0694931394         -0.6059
H306       H    0.0616116392   -0.3655899686   -0.0491928551          0.3548
C307       C   -0.0068889191   -0.2159790546    0.0079796102           0.379
C308       C   -0.0033996412   -0.1772309686    0.0039186848          0.3791
H309       H    0.0272802751   -0.3157173928   -0.0470685177          0.3792
C310       C   -0.0000000000   -0.1383227531    0.0000000000          0.3791
C269       C    0.0000000000    0.3616772469    0.0000000000          0.3756
C270       C   -0.0282548889    0.3389304360    0.0011217798          0.3767
C271       C   -0.0203088365    0.3032439613   -0.0000646369          0.3778
C272       C    0.0118215444    0.2866858831   -0.0024717940          0.3782
C273       C    0.0389844541    0.3108159439   -0.0047849413          0.3781
C274       C    0.0332484560    0.3471069940   -0.0038510513          0.3771
C275       C    0.0146995913    0.2498359156   -0.0028931129           0.379
O276       O   -0.0498844161    0.2878317853    0.0013139204          0.3787
C277       C   -0.0685674379    0.3546117254    0.0024268793          0.3779
H278       H    0.0561800291    0.3652580233   -0.0054799648          0.3768
H279       H    0.0665836118    0.3011836718   -0.0074289470          0.3788
C280       C   -0.1044318440    0.3332298326   -0.0048929524         -0.6133
H281       H   -0.1044938987    0.3202302133   -0.0313719125         -0.5904
H282       H   -0.1093722854    0.3127140612    0.0158484064          0.3695
H283       H   -0.1276261734    0.3514238025   -0.0037528353         -0.6131
H284       H   -0.0703852815    0.3770031293   -0.0167267338         -0.6059
H285       H   -0.0731597556    0.3655899686    0.0293867527          0.3548
C286       C    0.0103377483    0.2159790546   -0.0020645447           0.379
C287       C    0.0050849038    0.1772309686   -0.0010283014          0.3791
H288       H   -0.0543999067    0.3157173928    0.0005558069          0.3792
C289       C    0.0000000000    0.1383227531    0.0000000000          0.3791
C248       C   -0.3616772469   -0.0000000000    0.0000000000          0.3756
C249       C   -0.3389304360   -0.0161492482   -0.0232120426          0.3767
C250       C   -0.3032439613   -0.0108735305   -0.0171528234          0.3778
C251       C   -0.2866858831    0.0084445141    0.0086341681          0.3782
C252       C   -0.3108159439    0.0250103651    0.0302847315          0.3781
C253       C   -0.3471069940    0.0211367101    0.0259524548          0.3771
C254       C   -0.2498359156    0.0103482907    0.0108333268           0.379
O255       O   -0.2878317853   -0.0279498654   -0.0413398885          0.3787
C256       C   -0.3546117254   -0.0389411384   -0.0564886805          0.3779
H257       H   -0.3652580233    0.0348489835    0.0444046622          0.3768
H258       H   -0.3011836718    0.0420898335    0.0521249703          0.3788
C259       C   -0.3332298326   -0.0520696833   -0.0906570412         -0.6133
H260       H   -0.3202302133   -0.0297843179   -0.1049574493         -0.5904
H261       H   -0.3127140612   -0.0722107028   -0.0836605236          0.3695
H262       H   -0.3514238025   -0.0655113438   -0.1095937395         -0.6131
H263       H   -0.3770031293   -0.0237749839   -0.0683273124         -0.6059
H264       H   -0.3655899686   -0.0641363372   -0.0458526043          0.3548
C265       C   -0.2159790546    0.0073028311    0.0076026340           0.379
C266       C   -0.1772309686    0.0036028848    0.0037326763          0.3791
H267       H   -0.3157173928   -0.0297406089   -0.0455538687          0.3792
C268       C   -0.1383227531   -0.0000000000    0.0000000000          0.3791
C227       C    0.1383227531   -0.0000000000    0.0000000000          0.3756
C228       C    0.1610695640    0.0282736755    0.0004431843          0.3767
C229       C    0.1967560387    0.0202741536    0.0011881560          0.3778
C230       C    0.2133141169   -0.0119401933    0.0018139626          0.3782
C231       C    0.1891840561   -0.0391894765    0.0026207365          0.3781
C232       C    0.1528930060   -0.0334105952    0.0020056299          0.3771
C233       C    0.2501640844   -0.0148371422    0.0020754037           0.379
O234       O    0.2121682147    0.0498807035    0.0014480253          0.3787
C235       C    0.1453882746    0.0685966849    0.0013704385          0.3779
H236       H    0.1347419767   -0.0563971664    0.0023633234          0.3768
H237       H    0.1988163282   -0.0668926446    0.0037337259          0.3788
C238       C    0.1667701674    0.1040011769    0.0106633127         -0.6133
H239       H    0.1797697867    0.1025981467    0.0371051487         -0.5904
H240       H    0.1872859388    0.1100815991   -0.0097729392          0.3695
H241       H    0.1485761975    0.1272230586    0.0108082044         -0.6131
H242       H    0.1229968707    0.0693520406    0.0205952892         -0.6059
H243       H    0.1344100314    0.0746735657   -0.0252940637          0.3548
C244       C    0.2840209454   -0.0104361383    0.0014894304           0.379
C245       C    0.3227690314   -0.0051340077    0.0007453961          0.3791
H246       H    0.1842826072    0.0543473340    0.0024548042          0.3792
C247       C    0.3616772469   -0.0000000000    0.0000000000          0.3791
C206       C    0.0000000000   -0.0000000000   -0.1383227531          0.3756
C207       C    0.0282752793   -0.0003251459   -0.1610695640          0.3767
C208       C    0.0202789371   -0.0011035069   -0.1967560387          0.3778
C209       C   -0.0119325165   -0.0018637937   -0.2133141169          0.3782
C210       C   -0.0391781941   -0.0027843185   -0.1891840561          0.3781
C211       C   -0.0334019311   -0.0021450921   -0.1528930060          0.3771
C212       C   -0.0148283486   -0.0021373265   -0.2501640844           0.379
O213       O    0.0498863139   -0.0012397750   -0.2121682147          0.3787
C214       C    0.0686018084   -0.0010840550   -0.1453882746          0.3779
H215       H   -0.0563868088   -0.0025987449   -0.1347419767          0.3768
H216       H   -0.0668764745   -0.0040129510   -0.1988163282          0.3788
C217       C    0.1040447869   -0.0102290446   -0.1667701674         -0.6133
H218       H    0.1027521560   -0.0366765074   -0.1797697867         -0.5904
H219       H    0.1100398406    0.0102324132   -0.1872859388          0.3695
H220       H    0.1272670711   -0.0102769903   -0.1485761975         -0.6131
H221       H    0.0694374157   -0.0203055848   -0.1229968707         -0.6059
H222       H    0.0745673195    0.0256055841   -0.1344100314          0.3548
C223       C   -0.0104298294   -0.0015329853   -0.2840209454           0.379
C224       C   -0.0051308512   -0.0007668226   -0.3227690314          0.3791
H225       H    0.0543571085   -0.0022278982   -0.1842826072          0.3792
C226       C   -0.0000000000    0.0000000000   -0.3616772469          0.3791
C185       C   -0.0000000000    0.0000000000    0.3616772469          0.3756
C186       C    0.0164876034    0.0229729422    0.3389304360          0.3767
C187       C    0.0125377036    0.0159768272    0.3032439613          0.3778
C188       C   -0.0053190022   -0.0108428268    0.2866858831          0.3782
C189       C   -0.0201956385   -0.0336870823    0.3108159439          0.3781
C190       C   -0.0174054180   -0.0285891911    0.3471069940          0.3771
C191       C   -0.0067562734   -0.0133716438    0.2498359156           0.379
O192       O    0.0296348155    0.0401492100    0.2878317853          0.3787
C193       C    0.0402441886    0.0555678735    0.3546117254          0.3779
H194       H   -0.0302200715   -0.0476757062    0.3652580233          0.3768
H195       H   -0.0350795669   -0.0570788104    0.3011836718          0.3788
C196       C    0.0680679223    0.0793518052    0.3332298326         -0.6133
H197       H    0.0889887142    0.0631203651    0.3202302133         -0.5904
H198       H    0.0547478362    0.0960007460    0.3127140612          0.3695
H199       H    0.0814296188    0.0983450105    0.3514238025         -0.6131
H200       H    0.0564673768    0.0452250687    0.3770031293         -0.6059
H201       H    0.0218058283    0.0757656712    0.3655899686          0.3548
C202       C   -0.0047278792   -0.0094222366    0.2159790546           0.379
C203       C   -0.0023154428   -0.0046424536    0.1772309686          0.3791
H204       H    0.0330090156    0.0432442327    0.3157173928          0.3792
C205       C   -0.0000000000   -0.0000000000    0.1383227531          0.3791
loop_
_geom_bond_atom_site_label_1
_geom_bond_atom_site_label_2
_geom_bond_distance
_geom_bond_site_symmetry_2
_ccdc_geom_bond_type
Zn1          O5 1.942       .   S
Zn1          O6 1.922       .   S
Zn1         O10 1.922       .   S
Zn1         O17 1.922       .   S
Zn2          O5 1.942       .   S
Zn2          O7 1.922       .   S
Zn2          O9 1.922       .   S
Zn2         O13 1.922       .   S
Zn3          O5 1.942       .   S
Zn3          O8 1.922       .   S
Zn3         O11 1.922       .   S
Zn3         O14 1.922       .   S
Zn4          O5 1.942       .   S
Zn4         O12 1.922       .   S
Zn4         O15 1.922       .   S
Zn4         O16 1.922       .   S
O6          C18 1.304       .   A
O7          C19 1.304       .   A
O8          C20 1.304       .   A
O9          C18 1.304       .   A
O10         C20 1.304       .   A
O11         C19 1.304       .   A
O12         C21 1.304       .   A
O13         C22 1.304       .   A
O14         C21 1.304       .   A
O15         C22 1.304       .   A
O16         C23 1.304       .   A
O17         C23 1.304       .   A
C18        C205 1.540       .   S
C19        C227 1.540       .   S
C20        C310 1.540       .   S
C21        C206 1.540       .   S
C22        C289 1.540       .   S
C23        C268 1.540       .   S
Zn24        O28 1.942       .   S
Zn24        O29 1.922       .   S
Zn24        O33 1.922       .   S
Zn24        O40 1.922       .   S
Zn25        O28 1.942       .   S
Zn25        O30 1.922       .   S
Zn25        O32 1.922       .   S
Zn25        O36 1.922       .   S
Zn26        O28 1.942       .   S
Zn26        O31 1.922       .   S
Zn26        O34 1.922       .   S
Zn26        O37 1.922       .   S
Zn27        O28 1.942       .   S
Zn27        O35 1.922       .   S
Zn27        O38 1.922       .   S
Zn27        O39 1.922       .   S
O29         C41 1.304       .   A
O30         C42 1.304       .   A
O31         C43 1.304       .   A
O32         C41 1.304       .   A
O33         C43 1.304       .   A
O34         C42 1.304       .   A
O35         C44 1.304       .   A
O36         C45 1.304       .   A
O37         C44 1.304       .   A
O38         C45 1.304       .   A
O39         C46 1.304       .   A
O40         C46 1.304       .   A
C41        C353 1.540       .   S
C42        C311 1.540       .   S
C43        C226 1.540   1_656   S
C44        C374 1.540       .   S
C45        C185 1.540   1_655   S
C46        C352 1.540       .   S
Zn47        O51 1.942       .   S
Zn47        O52 1.922       .   S
Zn47        O56 1.922       .   S
Zn47        O63 1.922       .   S
Zn48        O51 1.942       .   S
Zn48        O53 1.922       .   S
Zn48        O55 1.922       .   S
Zn48        O59 1.922       .   S
Zn49        O51 1.942       .   S
Zn49        O54 1.922       .   S
Zn49        O57 1.922       .   S
Zn49        O60 1.922       .   S
Zn50        O51 1.942       .   S
Zn50        O58 1.922       .   S
Zn50        O61 1.922       .   S
Zn50        O62 1.922       .   S
O52         C64 1.304       .   A
O53         C65 1.304       .   A
O54         C66 1.304       .   A
O55         C64 1.304       .   A
O56         C66 1.304       .   A
O57         C65 1.304       .   A
O58         C67 1.304       .   A
O59         C68 1.304       .   A
O60         C67 1.304       .   A
O61         C68 1.304       .   A
O62         C69 1.304       .   A
O63         C69 1.304       .   A
C64        C395 1.540       .   S
C65        C437 1.540       .   S
C66        C269 1.540   1_655   S
C67        C416 1.540       .   S
C68        C290 1.540   1_665   S
C69        C458 1.540       .   S
Zn70        O74 1.942       .   S
Zn70        O75 1.922       .   S
Zn70        O79 1.922       .   S
Zn70        O86 1.922       .   S
Zn71        O74 1.942       .   S
Zn71        O76 1.922       .   S
Zn71        O78 1.922       .   S
Zn71        O82 1.922       .   S
Zn72        O74 1.942       .   S
Zn72        O77 1.922       .   S
Zn72        O80 1.922       .   S
Zn72        O83 1.922       .   S
Zn73        O74 1.942       .   S
Zn73        O81 1.922       .   S
Zn73        O84 1.922       .   S
Zn73        O85 1.922       .   S
O75         C87 1.304       .   A
O76         C88 1.304       .   A
O77         C89 1.304       .   A
O78         C87 1.304       .   A
O79         C89 1.304       .   A
O80         C88 1.304       .   A
O81         C90 1.304       .   A
O82         C91 1.304       .   A
O83         C90 1.304       .   A
O84         C91 1.304       .   A
O85         C92 1.304       .   A
O86         C92 1.304       .   A
C87        C373 1.540       .   S
C88        C415 1.540       .   S
C89        C500 1.540       .   S
C90        C394 1.540   1_565   S
C91        C479 1.540       .   S
C92        C436 1.540   1_556   S
Zn93        O97 1.942       .   S
Zn93        O98 1.922       .   S
Zn93       O102 1.922       .   S
Zn93       O109 1.922       .   S
Zn94        O97 1.942       .   S
Zn94        O99 1.922       .   S
Zn94       O101 1.922       .   S
Zn94       O105 1.922       .   S
Zn95        O97 1.942       .   S
Zn95       O100 1.922       .   S
Zn95       O103 1.922       .   S
Zn95       O106 1.922       .   S
Zn96        O97 1.942       .   S
Zn96       O104 1.922       .   S
Zn96       O107 1.922       .   S
Zn96       O108 1.922       .   S
O98        C110 1.304       .   A
O99        C111 1.304       .   A
O100       C112 1.304       .   A
O101       C110 1.304       .   A
O102       C112 1.304       .   A
O103       C111 1.304       .   A
O104       C113 1.304       .   A
O105       C114 1.304       .   A
O106       C113 1.304       .   A
O107       C114 1.304       .   A
O108       C115 1.304       .   A
O109       C115 1.304       .   A
C110       C247 1.540   1_565   S
C111       C521 1.540       .   S
C112       C584 1.540       .   S
C113       C248 1.540   1_665   S
C114       C563 1.540       .   S
C115       C562 1.540       .   S
Zn116      O120 1.942       .   S
Zn116      O121 1.922       .   S
Zn116      O125 1.922       .   S
Zn116      O132 1.922       .   S
Zn117      O120 1.942       .   S
Zn117      O122 1.922       .   S
Zn117      O124 1.922       .   S
Zn117      O128 1.922       .   S
Zn118      O120 1.942       .   S
Zn118      O123 1.922       .   S
Zn118      O126 1.922       .   S
Zn118      O129 1.922       .   S
Zn119      O120 1.942       .   S
Zn119      O127 1.922       .   S
Zn119      O130 1.922       .   S
Zn119      O131 1.922       .   S
O121       C133 1.304       .   A
O122       C134 1.304       .   A
O123       C135 1.304       .   A
O124       C133 1.304       .   A
O125       C135 1.304       .   A
O126       C134 1.304       .   A
O127       C136 1.304       .   A
O128       C137 1.304       .   A
O129       C136 1.304       .   A
O130       C137 1.304       .   A
O131       C138 1.304       .   A
O132       C138 1.304       .   A
C133       C331 1.540   1_465   S
C134       C541 1.540       .   S
C135       C605 1.540       .   S
C136       C332 1.540   1_565   S
C137       C626 1.540       .   S
C138       C542 1.540   1_556   S
Zn139      O143 1.942       .   S
Zn139      O144 1.922       .   S
Zn139      O148 1.922       .   S
Zn139      O155 1.922       .   S
Zn140      O143 1.942       .   S
Zn140      O145 1.922       .   S
Zn140      O147 1.922       .   S
Zn140      O151 1.922       .   S
Zn141      O143 1.942       .   S
Zn141      O146 1.922       .   S
Zn141      O149 1.922       .   S
Zn141      O152 1.922       .   S
Zn142      O143 1.942       .   S
Zn142      O150 1.922       .   S
Zn142      O153 1.922       .   S
Zn142      O154 1.922       .   S
O144       C156 1.304       .   A
O145       C157 1.304       .   A
O146       C158 1.304       .   A
O147       C156 1.304       .   A
O148       C158 1.304       .   A
O149       C157 1.304       .   A
O150       C159 1.304       .   A
O151       C160 1.304       .   A
O152       C159 1.304       .   A
O153       C160 1.304       .   A
O154       C161 1.304       .   A
O155       C161 1.304       .   A
C156       C457 1.540   1_455   S
C157       C583 1.540   1_545   S
C158       C668 1.540       .   S
C159       C478 1.540       .   S
C160       C667 1.540       .   S
C161       C604 1.540       .   S
Zn162      O166 1.942       .   S
Zn162      O167 1.922       .   S
Zn162      O171 1.922       .   S
Zn162      O178 1.922       .   S
Zn163      O166 1.942       .   S
Zn163      O168 1.922       .   S
Zn163      O170 1.922       .   S
Zn163      O174 1.922       .   S
Zn164      O166 1.942       .   S
Zn164      O169 1.922       .   S
Zn164      O172 1.922       .   S
Zn164      O175 1.922       .   S
Zn165      O166 1.942       .   S
Zn165      O173 1.922       .   S
Zn165      O176 1.922       .   S
Zn165      O177 1.922       .   S
O167       C179 1.304       .   A
O168       C180 1.304       .   A
O169       C181 1.304       .   A
O170       C179 1.304       .   A
O171       C181 1.304       .   A
O172       C180 1.304       .   A
O173       C182 1.304       .   A
O174       C183 1.304       .   A
O175       C182 1.304       .   A
O176       C183 1.304       .   A
O177       C184 1.304       .   A
O178       C184 1.304       .   A
C179       C499 1.540   1_455   S
C180       C625 1.540   1_545   S
C181       C647 1.540       .   S
C182       C520 1.540       .   S
C183       C688 1.540   1_556   S
C184       C646 1.540       .   S
C668       C669 0.031       .   A
C668       C673 0.031       .   A
C669       C670 0.031       .   A
C669       C676 0.037       .   A
C670       C671 0.031       .   A
C670       O675 0.029       .   A
C671       C672 0.031       .   A
C671       C674 0.032       .   A
C672       C673 0.032       .   A
C672       H678 0.025       .   A
C673       H677 0.025       .   A
C674       C685 0.029       .   A
O675       H687 0.024       .   A
C676       C679 0.036       .   A
C676       H683 0.025       .   A
C676       H684 0.025       .   A
C679       H680 0.025       .   A
C679       H681 0.025       .   A
C679       H682 0.025       .   A
C685       C686 0.034       .   A
C686       C688 0.034       .   A
C647       C648 0.031       .   A
C647       C652 0.031       .   A
C648       C649 0.031       .   A
C648       C655 0.037       .   A
C649       C650 0.031       .   A
C649       O654 0.029       .   A
C650       C651 0.031       .   A
C650       C653 0.032       .   A
C651       C652 0.032       .   A
C651       H657 0.025       .   A
C652       H656 0.025       .   A
C653       C664 0.029       .   A
O654       H666 0.024       .   A
C655       C658 0.036       .   A
C655       H662 0.025       .   A
C655       H663 0.025       .   A
C658       H659 0.025       .   A
C658       H660 0.025       .   A
C658       H661 0.025       .   A
C664       C665 0.034       .   A
C665       C667 0.034       .   A
C626       C627 0.031       .   A
C626       C631 0.031       .   A
C627       C628 0.031       .   A
C627       C634 0.037       .   A
C628       C629 0.031       .   A
C628       O633 0.029       .   A
C629       C630 0.031       .   A
C629       C632 0.032       .   A
C630       C631 0.032       .   A
C630       H636 0.025       .   A
C631       H635 0.025       .   A
C632       C643 0.029       .   A
O633       H645 0.024       .   A
C634       C637 0.036       .   A
C634       H641 0.025       .   A
C634       H642 0.025       .   A
C637       H638 0.025       .   A
C637       H639 0.025       .   A
C637       H640 0.025       .   A
C643       C644 0.034       .   A
C644       C646 0.034       .   A
C605       C606 0.031       .   A
C605       C610 0.031       .   A
C606       C607 0.031       .   A
C606       C613 0.037       .   A
C607       C608 0.031       .   A
C607       O612 0.029       .   A
C608       C609 0.031       .   A
C608       C611 0.032       .   A
C609       C610 0.032       .   A
C609       H615 0.025       .   A
C610       H614 0.025       .   A
C611       C622 0.029       .   A
O612       H624 0.024       .   A
C613       C616 0.036       .   A
C613       H620 0.025       .   A
C613       H621 0.025       .   A
C616       H617 0.025       .   A
C616       H618 0.025       .   A
C616       H619 0.025       .   A
C622       C623 0.034       .   A
C623       C625 0.034       .   A
C584       C585 0.031       .   A
C584       C589 0.031       .   A
C585       C586 0.031       .   A
C585       C592 0.037       .   A
C586       C587 0.031       .   A
C586       O591 0.029       .   A
C587       C588 0.031       .   A
C587       C590 0.032       .   A
C588       C589 0.032       .   A
C588       H594 0.025       .   A
C589       H593 0.025       .   A
C590       C601 0.029       .   A
O591       H603 0.024       .   A
C592       C595 0.036       .   A
C592       H599 0.025       .   A
C592       H600 0.025       .   A
C595       H596 0.025       .   A
C595       H597 0.025       .   A
C595       H598 0.025       .   A
C601       C602 0.034       .   A
C602       C604 0.034       .   A
C563       C564 0.031       .   A
C563       C568 0.031       .   A
C564       C565 0.031       .   A
C564       C571 0.037       .   A
C565       C566 0.031       .   A
C565       O570 0.029       .   A
C566       C567 0.031       .   A
C566       C569 0.032       .   A
C567       C568 0.032       .   A
C567       H573 0.025       .   A
C568       H572 0.025       .   A
C569       C580 0.029       .   A
O570       H582 0.024       .   A
C571       C574 0.036       .   A
C571       H578 0.025       .   A
C571       H579 0.025       .   A
C574       H575 0.025       .   A
C574       H576 0.025       .   A
C574       H577 0.025       .   A
C580       C581 0.034       .   A
C581       C583 0.034       .   A
C542       C543 0.031       .   A
C542       C547 0.031       .   A
C543       C544 0.031       .   A
C543       C550 0.037       .   A
C544       C545 0.031       .   A
C544       O549 0.029       .   A
C545       C546 0.031       .   A
C545       C548 0.032       .   A
C546       C547 0.032       .   A
C546       H552 0.025       .   A
C547       H551 0.025       .   A
C548       C559 0.029       .   A
O549       H561 0.024       .   A
C550       C553 0.036       .   A
C550       H557 0.025       .   A
C550       H558 0.025       .   A
C553       H554 0.025       .   A
C553       H555 0.025       .   A
C553       H556 0.025       .   A
C559       C560 0.034       .   A
C560       C562 0.034       .   A
C521       C522 0.031       .   A
C521       C526 0.031       .   A
C522       C523 0.031       .   A
C522       C529 0.037       .   A
C523       C524 0.031       .   A
C523       O528 0.029       .   A
C524       C525 0.031       .   A
C524       C527 0.032       .   A
C525       C526 0.032       .   A
C525       H531 0.025       .   A
C526       H530 0.025       .   A
C527       C538 0.029       .   A
O528       H540 0.024       .   A
C529       C532 0.036       .   A
C529       H536 0.025       .   A
C529       H537 0.025       .   A
C532       H533 0.025       .   A
C532       H534 0.025       .   A
C532       H535 0.025       .   A
C538       C539 0.034       .   A
C539       C541 0.034       .   A
C500       C501 0.031       .   A
C500       C505 0.031       .   A
C501       C502 0.031       .   A
C501       C508 0.037       .   A
C502       C503 0.031       .   A
C502       O507 0.029       .   A
C503       C504 0.031       .   A
C503       C506 0.032       .   A
C504       C505 0.032       .   A
C504       H510 0.025       .   A
C505       H509 0.025       .   A
C506       C517 0.029       .   A
O507       H519 0.024       .   A
C508       C511 0.036       .   A
C508       H515 0.025       .   A
C508       H516 0.025       .   A
C511       H512 0.025       .   A
C511       H513 0.025       .   A
C511       H514 0.025       .   A
C517       C518 0.034       .   A
C518       C520 0.034       .   A
C479       C480 0.031       .   A
C479       C484 0.031       .   A
C480       C481 0.031       .   A
C480       C487 0.037       .   A
C481       C482 0.031       .   A
C481       O486 0.029       .   A
C482       C483 0.031       .   A
C482       C485 0.032       .   A
C483       C484 0.032       .   A
C483       H489 0.025       .   A
C484       H488 0.025       .   A
C485       C496 0.029       .   A
O486       H498 0.024       .   A
C487       C490 0.036       .   A
C487       H494 0.025       .   A
C487       H495 0.025       .   A
C490       H491 0.025       .   A
C490       H492 0.025       .   A
C490       H493 0.025       .   A
C496       C497 0.034       .   A
C497       C499 0.034       .   A
C458       C459 0.031       .   A
C458       C463 0.031       .   A
C459       C460 0.031       .   A
C459       C466 0.037       .   A
C460       C461 0.031       .   A
C460       O465 0.029       .   A
C461       C462 0.031       .   A
C461       C464 0.032       .   A
C462       C463 0.032       .   A
C462       H468 0.025       .   A
C463       H467 0.025       .   A
C464       C475 0.029       .   A
O465       H477 0.024       .   A
C466       C469 0.036       .   A
C466       H473 0.025       .   A
C466       H474 0.025       .   A
C469       H470 0.025       .   A
C469       H471 0.025       .   A
C469       H472 0.025       .   A
C475       C476 0.034       .   A
C476       C478 0.034       .   A
C437       C438 0.031       .   A
C437       C442 0.031       .   A
C438       C439 0.031       .   A
C438       C445 0.037       .   A
C439       C440 0.031       .   A
C439       O444 0.029       .   A
C440       C441 0.031       .   A
C440       C443 0.032       .   A
C441       C442 0.032       .   A
C441       H447 0.025       .   A
C442       H446 0.025       .   A
C443       C454 0.029       .   A
O444       H456 0.024       .   A
C445       C448 0.036       .   A
C445       H452 0.025       .   A
C445       H453 0.025       .   A
C448       H449 0.025       .   A
C448       H450 0.025       .   A
C448       H451 0.025       .   A
C454       C455 0.034       .   A
C455       C457 0.034       .   A
C416       C417 0.031       .   A
C416       C421 0.031       .   A
C417       C418 0.031       .   A
C417       C424 0.037       .   A
C418       C419 0.031       .   A
C418       O423 0.029       .   A
C419       C420 0.031       .   A
C419       C422 0.032       .   A
C420       C421 0.032       .   A
C420       H426 0.025       .   A
C421       H425 0.025       .   A
C422       C433 0.029       .   A
O423       H435 0.024       .   A
C424       C427 0.036       .   A
C424       H431 0.025       .   A
C424       H432 0.025       .   A
C427       H428 0.025       .   A
C427       H429 0.025       .   A
C427       H430 0.025       .   A
C433       C434 0.034       .   A
C434       C436 0.034       .   A
C395       C396 0.031       .   A
C395       C400 0.031       .   A
C396       C397 0.031       .   A
C396       C403 0.037       .   A
C397       C398 0.031       .   A
C397       O402 0.029       .   A
C398       C399 0.031       .   A
C398       C401 0.032       .   A
C399       C400 0.032       .   A
C399       H405 0.025       .   A
C400       H404 0.025       .   A
C401       C412 0.029       .   A
O402       H414 0.024       .   A
C403       C406 0.036       .   A
C403       H410 0.025       .   A
C403       H411 0.025       .   A
C406       H407 0.025       .   A
C406       H408 0.025       .   A
C406       H409 0.025       .   A
C412       C413 0.034       .   A
C413       C415 0.034       .   A
C374       C375 0.031       .   A
C374       C379 0.031       .   A
C375       C376 0.031       .   A
C375       C382 0.037       .   A
C376       C377 0.031       .   A
C376       O381 0.029       .   A
C377       C378 0.031       .   A
C377       C380 0.032       .   A
C378       C379 0.032       .   A
C378       H384 0.025       .   A
C379       H383 0.025       .   A
C380       C391 0.029       .   A
O381       H393 0.024       .   A
C382       C385 0.036       .   A
C382       H389 0.025       .   A
C382       H390 0.025       .   A
C385       H386 0.025       .   A
C385       H387 0.025       .   A
C385       H388 0.025       .   A
C391       C392 0.034       .   A
C392       C394 0.034       .   A
C353       C354 0.031       .   A
C353       C358 0.031       .   A
C354       C355 0.031       .   A
C354       C361 0.037       .   A
C355       C356 0.031       .   A
C355       O360 0.029       .   A
C356       C357 0.031       .   A
C356       C359 0.032       .   A
C357       C358 0.032       .   A
C357       H363 0.025       .   A
C358       H362 0.025       .   A
C359       C370 0.029       .   A
O360       H372 0.024       .   A
C361       C364 0.036       .   A
C361       H368 0.025       .   A
C361       H369 0.025       .   A
C364       H365 0.025       .   A
C364       H366 0.025       .   A
C364       H367 0.025       .   A
C370       C371 0.034       .   A
C371       C373 0.034       .   A
C332       C333 0.031       .   A
C332       C337 0.031       .   A
C333       C334 0.031       .   A
C333       C340 0.037       .   A
C334       C335 0.031       .   A
C334       O339 0.029       .   A
C335       C336 0.031       .   A
C335       C338 0.032       .   A
C336       C337 0.032       .   A
C336       H342 0.025       .   A
C337       H341 0.025       .   A
C338       C349 0.029       .   A
O339       H351 0.024       .   A
C340       C343 0.036       .   A
C340       H347 0.025       .   A
C340       H348 0.025       .   A
C343       H344 0.025       .   A
C343       H345 0.025       .   A
C343       H346 0.025       .   A
C349       C350 0.034       .   A
C350       C352 0.034       .   A
C311       C312 0.031       .   A
C311       C316 0.031       .   A
C312       C313 0.031       .   A
C312       C319 0.037       .   A
C313       C314 0.031       .   A
C313       O318 0.029       .   A
C314       C315 0.031       .   A
C314       C317 0.032       .   A
C315       C316 0.032       .   A
C315       H321 0.025       .   A
C316       H320 0.025       .   A
C317       C328 0.029       .   A
O318       H330 0.024       .   A
C319       C322 0.036       .   A
C319       H326 0.025       .   A
C319       H327 0.025       .   A
C322       H323 0.025       .   A
C322       H324 0.025       .   A
C322       H325 0.025       .   A
C328       C329 0.034       .   A
C329       C331 0.034       .   A
C290       C291 0.031       .   A
C290       C295 0.031       .   A
C291       C292 0.031       .   A
C291       C298 0.037       .   A
C292       C293 0.031       .   A
C292       O297 0.029       .   A
C293       C294 0.031       .   A
C293       C296 0.032       .   A
C294       C295 0.032       .   A
C294       H300 0.025       .   A
C295       H299 0.025       .   A
C296       C307 0.029       .   A
O297       H309 0.024       .   A
C298       C301 0.036       .   A
C298       H305 0.025       .   A
C298       H306 0.025       .   A
C301       H302 0.025       .   A
C301       H303 0.025       .   A
C301       H304 0.025       .   A
C307       C308 0.034       .   A
C308       C310 0.034       .   A
C269       C270 0.031       .   A
C269       C274 0.031       .   A
C270       C271 0.031       .   A
C270       C277 0.037       .   A
C271       C272 0.031       .   A
C271       O276 0.029       .   A
C272       C273 0.031       .   A
C272       C275 0.032       .   A
C273       C274 0.032       .   A
C273       H279 0.025       .   A
C274       H278 0.025       .   A
C275       C286 0.029       .   A
O276       H288 0.024       .   A
C277       C280 0.036       .   A
C277       H284 0.025       .   A
C277       H285 0.025       .   A
C280       H281 0.025       .   A
C280       H282 0.025       .   A
C280       H283 0.025       .   A
C286       C287 0.034       .   A
C287       C289 0.034       .   A
C248       C249 0.031       .   A
C248       C253 0.031       .   A
C249       C250 0.031       .   A
C249       C256 0.037       .   A
C250       C251 0.031       .   A
C250       O255 0.029       .   A
C251       C252 0.031       .   A
C251       C254 0.032       .   A
C252       C253 0.032       .   A
C252       H258 0.025       .   A
C253       H257 0.025       .   A
C254       C265 0.029       .   A
O255       H267 0.024       .   A
C256       C259 0.036       .   A
C256       H263 0.025       .   A
C256       H264 0.025       .   A
C259       H260 0.025       .   A
C259       H261 0.025       .   A
C259       H262 0.025       .   A
C265       C266 0.034       .   A
C266       C268 0.034       .   A
C227       C228 0.031       .   A
C227       C232 0.031       .   A
C228       C229 0.031       .   A
C228       C235 0.037       .   A
C229       C230 0.031       .   A
C229       O234 0.029       .   A
C230       C231 0.031       .   A
C230       C233 0.032       .   A
C231       C232 0.032       .   A
C231       H237 0.025       .   A
C232       H236 0.025       .   A
C233       C244 0.029       .   A
O234       H246 0.024       .   A
C235       C238 0.036       .   A
C235       H242 0.025       .   A
C235       H243 0.025       .   A
C238       H239 0.025       .   A
C238       H240 0.025       .   A
C238       H241 0.025       .   A
C244       C245 0.034       .   A
C245       C247 0.034       .   A
C206       C207 0.031       .   A
C206       C211 0.031       .   A
C207       C208 0.031       .   A
C207       C214 0.037       .   A
C208       C209 0.031       .   A
C208       O213 0.029       .   A
C209       C210 0.031       .   A
C209       C212 0.032       .   A
C210       C211 0.032       .   A
C210       H216 0.025       .   A
C211       H215 0.025       .   A
C212       C223 0.029       .   A
O213       H225 0.024       .   A
C214       C217 0.036       .   A
C214       H221 0.025       .   A
C214       H222 0.025       .   A
C217       H218 0.025       .   A
C217       H219 0.025       .   A
C217       H220 0.025       .   A
C223       C224 0.034       .   A
C224       C226 0.034       .   A
C185       C186 0.031       .   A
C185       C190 0.031       .   A
C186       C187 0.031       .   A
C186       C193 0.037       .   A
C187       C188 0.031       .   A
C187       O192 0.029       .   A
C188       C189 0.031       .   A
C188       C191 0.032       .   A
C189       C190 0.032       .   A
C189       H195 0.025       .   A
C190       H194 0.025       .   A
C191       C202 0.029       .   A
O192       H204 0.024       .   A
C193       C196 0.036       .   A
C193       H200 0.025       .   A
C193       H201 0.025       .   A
C196       H197 0.025       .   A
C196       H198 0.025       .   A
C196       H199 0.025       .   A
C202       C203 0.034       .   A
C203       C205 0.034       .   A
