data_pcu_v1-6c_Zn_1_Ch_1-27_fer_tobacco
_audit_creation_date              2021-04-07
_audit_creation_method            'tobacco_3.0'
_symmetry_space_group_name_H-M    'P1'
_symmetry_Int_Tables_number       1
_symmetry_cell_setting            triclinic
loop_
_symmetry_equiv_pos_as_xyz
  x,y,z
_cell_length_a                    40.14665877602859
_cell_length_b                    40.14665877602859
_cell_length_c                    40.14665877602859
_cell_angle_alpha                 90.0
_cell_angle_beta                  90.0
_cell_angle_gamma                 90.0
loop_
_atom_site_label
_atom_site_type_symbol
_atom_site_fract_x
_atom_site_fract_y
_atom_site_fract_z
_atom_site_charge
Zn1       Zn   -0.0279276043   -0.0279276043    0.0279276043          1.4972
Zn2       Zn    0.0279276043    0.0279276043    0.0279276043          1.4936
Zn3       Zn    0.0279276043   -0.0279276043   -0.0279276043          1.4911
Zn4       Zn   -0.0279276043    0.0279276043   -0.0279276043          1.4948
O5         O    0.0000000000    0.0000000000    0.0000000000         -2.2699
O6         O   -0.0205247466   -0.0205247466    0.0746413298         -1.1762
O7         O    0.0746413298    0.0205247466    0.0205247466         -1.1744
O8         O    0.0205247466   -0.0746413298   -0.0205247466         -1.1696
O9         O    0.0205247466    0.0205247466    0.0746413298         -1.1764
O10        O   -0.0205247466   -0.0746413298    0.0205247466         -1.1724
O11        O    0.0746413298   -0.0205247466   -0.0205247466         -1.1782
O12        O   -0.0205247466    0.0205247466   -0.0746413298         -1.1721
O13        O    0.0205247466    0.0746413298    0.0205247466         -1.1797
O14        O    0.0205247466   -0.0205247466   -0.0746413298         -1.1736
O15        O   -0.0205247466    0.0746413298   -0.0205247466         -1.1782
O16        O   -0.0746413298    0.0205247466   -0.0205247466         -1.1773
O17        O   -0.0746413298   -0.0205247466    0.0205247466         -1.1752
C18        C   -0.0000000000   -0.0000000000    0.0892427940          0.3427
C19        C    0.0892427940   -0.0000000000   -0.0000000000          0.3476
C20        C   -0.0000000000   -0.0892427940    0.0000000000          0.3372
C21        C    0.0000000000    0.0000000000   -0.0892427940          0.3409
C22        C    0.0000000000    0.0892427940   -0.0000000000          0.3523
C23        C   -0.0892427940    0.0000000000    0.0000000000          0.3428
Zn24      Zn    0.9720723957    0.0279276043    0.4720723957          1.4972
Zn25      Zn    1.0279276043   -0.0279276043    0.4720723957          1.4936
Zn26      Zn    1.0279276043    0.0279276043    0.5279276043          1.4911
Zn27      Zn    0.9720723957   -0.0279276043    0.5279276043          1.4948
O28        O    1.0000000000    0.0000000000    0.5000000000         -2.2699
O29        O    0.9794752534    0.0205247466    0.4253586702         -1.1762
O30        O    1.0746413298   -0.0205247466    0.4794752534         -1.1744
O31        O    1.0205247466    0.0746413298    0.5205247466         -1.1696
O32        O    1.0205247466   -0.0205247466    0.4253586702         -1.1764
O33        O    0.9794752534    0.0746413298    0.4794752534         -1.1724
O34        O    1.0746413298    0.0205247466    0.5205247466         -1.1782
O35        O    0.9794752534   -0.0205247466    0.5746413298         -1.1721
O36        O    1.0205247466   -0.0746413298    0.4794752534         -1.1797
O37        O    1.0205247466    0.0205247466    0.5746413298         -1.1736
O38        O    0.9794752534   -0.0746413298    0.5205247466         -1.1782
O39        O    0.9253586702   -0.0205247466    0.5205247466         -1.1773
O40        O    0.9253586702    0.0205247466    0.4794752534         -1.1752
C41        C    1.0000000000    0.0000000000    0.4107572060          0.3427
C42        C    1.0892427940    0.0000000000    0.5000000000          0.3476
C43        C    1.0000000000    0.0892427940    0.5000000000          0.3372
C44        C    1.0000000000    0.0000000000    0.5892427940          0.3409
C45        C    1.0000000000   -0.0892427940    0.5000000000          0.3523
C46        C    0.9107572060    0.0000000000    0.5000000000          0.3428
Zn47      Zn    0.9720723957    0.4720723957   -0.0279276043          1.4972
Zn48      Zn    1.0279276043    0.4720723957    0.0279276043          1.4936
Zn49      Zn    1.0279276043    0.5279276043   -0.0279276043          1.4911
Zn50      Zn    0.9720723957    0.5279276043    0.0279276043          1.4948
O51        O    1.0000000000    0.5000000000    0.0000000000         -2.2699
O52        O    0.9794752534    0.4253586702   -0.0205247466         -1.1762
O53        O    1.0746413298    0.4794752534    0.0205247466         -1.1744
O54        O    1.0205247466    0.5205247466   -0.0746413298         -1.1696
O55        O    1.0205247466    0.4253586702    0.0205247466         -1.1764
O56        O    0.9794752534    0.4794752534   -0.0746413298         -1.1724
O57        O    1.0746413298    0.5205247466   -0.0205247466         -1.1782
O58        O    0.9794752534    0.5746413298    0.0205247466         -1.1721
O59        O    1.0205247466    0.4794752534    0.0746413298         -1.1797
O60        O    1.0205247466    0.5746413298   -0.0205247466         -1.1736
O61        O    0.9794752534    0.5205247466    0.0746413298         -1.1782
O62        O    0.9253586702    0.5205247466    0.0205247466         -1.1773
O63        O    0.9253586702    0.4794752534   -0.0205247466         -1.1752
C64        C    1.0000000000    0.4107572060    0.0000000000          0.3427
C65        C    1.0892427940    0.5000000000    0.0000000000          0.3476
C66        C    1.0000000000    0.5000000000   -0.0892427940          0.3372
C67        C    1.0000000000    0.5892427940    0.0000000000          0.3409
C68        C    1.0000000000    0.5000000000    0.0892427940          0.3523
C69        C    0.9107572060    0.5000000000    0.0000000000          0.3428
Zn70      Zn    0.9720723957    0.4720723957    0.5279276043          1.4972
Zn71      Zn    1.0279276043    0.4720723957    0.4720723957          1.4936
Zn72      Zn    0.9720723957    0.5279276043    0.4720723957          1.4911
Zn73      Zn    1.0279276043    0.5279276043    0.5279276043          1.4948
O74        O    1.0000000000    0.5000000000    0.5000000000         -2.2699
O75        O    0.9794752534    0.4253586702    0.5205247466         -1.1762
O76        O    1.0205247466    0.4794752534    0.4253586702         -1.1744
O77        O    0.9253586702    0.5205247466    0.4794752534         -1.1696
O78        O    1.0205247466    0.4253586702    0.4794752534         -1.1764
O79        O    0.9253586702    0.4794752534    0.5205247466         -1.1724
O80        O    0.9794752534    0.5205247466    0.4253586702         -1.1782
O81        O    1.0205247466    0.5746413298    0.5205247466         -1.1721
O82        O    1.0746413298    0.4794752534    0.4794752534         -1.1797
O83        O    0.9794752534    0.5746413298    0.4794752534         -1.1736
O84        O    1.0746413298    0.5205247466    0.5205247466         -1.1782
O85        O    1.0205247466    0.5205247466    0.5746413298         -1.1773
O86        O    0.9794752534    0.4794752534    0.5746413298         -1.1752
C87        C    1.0000000000    0.4107572060    0.5000000000          0.3427
C88        C    1.0000000000    0.5000000000    0.4107572060          0.3476
C89        C    0.9107572060    0.5000000000    0.5000000000          0.3372
C90        C    1.0000000000    0.5892427940    0.5000000000          0.3409
C91        C    1.0892427940    0.5000000000    0.5000000000          0.3523
C92        C    1.0000000000    0.5000000000    0.5892427940          0.3428
Zn93      Zn    0.4720723957    0.9720723957   -0.0279276043          1.4972
Zn94      Zn    0.4720723957    1.0279276043    0.0279276043          1.4936
Zn95      Zn    0.5279276043    0.9720723957    0.0279276043          1.4911
Zn96      Zn    0.5279276043    1.0279276043   -0.0279276043          1.4948
O97        O    0.5000000000    1.0000000000    0.0000000000         -2.2699
O98        O    0.4253586702    0.9794752534   -0.0205247466         -1.1762
O99        O    0.4794752534    1.0205247466    0.0746413298         -1.1744
O100       O    0.5205247466    0.9253586702    0.0205247466         -1.1696
O101       O    0.4253586702    1.0205247466    0.0205247466         -1.1764
O102       O    0.4794752534    0.9253586702   -0.0205247466         -1.1724
O103       O    0.5205247466    0.9794752534    0.0746413298         -1.1782
O104       O    0.5746413298    1.0205247466   -0.0205247466         -1.1721
O105       O    0.4794752534    1.0746413298    0.0205247466         -1.1797
O106       O    0.5746413298    0.9794752534    0.0205247466         -1.1736
O107       O    0.5205247466    1.0746413298   -0.0205247466         -1.1782
O108       O    0.5205247466    1.0205247466   -0.0746413298         -1.1773
O109       O    0.4794752534    0.9794752534   -0.0746413298         -1.1752
C110       C    0.4107572060    1.0000000000    0.0000000000          0.3427
C111       C    0.5000000000    1.0000000000    0.0892427940          0.3476
C112       C    0.5000000000    0.9107572060    0.0000000000          0.3372
C113       C    0.5892427940    1.0000000000    0.0000000000          0.3409
C114       C    0.5000000000    1.0892427940    0.0000000000          0.3523
C115       C    0.5000000000    1.0000000000   -0.0892427940          0.3428
Zn116     Zn    0.4720723957    1.0279276043    0.5279276043          1.4972
Zn117     Zn    0.4720723957    0.9720723957    0.4720723957          1.4936
Zn118     Zn    0.5279276043    1.0279276043    0.4720723957          1.4911
Zn119     Zn    0.5279276043    0.9720723957    0.5279276043          1.4948
O120       O    0.5000000000    1.0000000000    0.5000000000         -2.2699
O121       O    0.4253586702    1.0205247466    0.5205247466         -1.1762
O122       O    0.4794752534    0.9794752534    0.4253586702         -1.1744
O123       O    0.5205247466    1.0746413298    0.4794752534         -1.1696
O124       O    0.4253586702    0.9794752534    0.4794752534         -1.1764
O125       O    0.4794752534    1.0746413298    0.5205247466         -1.1724
O126       O    0.5205247466    1.0205247466    0.4253586702         -1.1782
O127       O    0.5746413298    0.9794752534    0.5205247466         -1.1721
O128       O    0.4794752534    0.9253586702    0.4794752534         -1.1797
O129       O    0.5746413298    1.0205247466    0.4794752534         -1.1736
O130       O    0.5205247466    0.9253586702    0.5205247466         -1.1782
O131       O    0.5205247466    0.9794752534    0.5746413298         -1.1773
O132       O    0.4794752534    1.0205247466    0.5746413298         -1.1752
C133       C    0.4107572060    1.0000000000    0.5000000000          0.3427
C134       C    0.5000000000    1.0000000000    0.4107572060          0.3476
C135       C    0.5000000000    1.0892427940    0.5000000000          0.3372
C136       C    0.5892427940    1.0000000000    0.5000000000          0.3409
C137       C    0.5000000000    0.9107572060    0.5000000000          0.3523
C138       C    0.5000000000    1.0000000000    0.5892427940          0.3428
Zn139     Zn    0.5279276043    0.4720723957    0.0279276043          1.4972
Zn140     Zn    0.4720723957    0.4720723957   -0.0279276043          1.4936
Zn141     Zn    0.4720723957    0.5279276043    0.0279276043          1.4911
Zn142     Zn    0.5279276043    0.5279276043   -0.0279276043          1.4948
O143       O    0.5000000000    0.5000000000    0.0000000000         -2.2699
O144       O    0.5205247466    0.4253586702    0.0205247466         -1.1762
O145       O    0.4253586702    0.4794752534   -0.0205247466         -1.1744
O146       O    0.4794752534    0.5205247466    0.0746413298         -1.1696
O147       O    0.4794752534    0.4253586702   -0.0205247466         -1.1764
O148       O    0.5205247466    0.4794752534    0.0746413298         -1.1724
O149       O    0.4253586702    0.5205247466    0.0205247466         -1.1782
O150       O    0.5205247466    0.5746413298   -0.0205247466         -1.1721
O151       O    0.4794752534    0.4794752534   -0.0746413298         -1.1797
O152       O    0.4794752534    0.5746413298    0.0205247466         -1.1736
O153       O    0.5205247466    0.5205247466   -0.0746413298         -1.1782
O154       O    0.5746413298    0.5205247466   -0.0205247466         -1.1773
O155       O    0.5746413298    0.4794752534    0.0205247466         -1.1752
C156       C    0.5000000000    0.4107572060    0.0000000000          0.3427
C157       C    0.4107572060    0.5000000000    0.0000000000          0.3476
C158       C    0.5000000000    0.5000000000    0.0892427940          0.3372
C159       C    0.5000000000    0.5892427940    0.0000000000          0.3409
C160       C    0.5000000000    0.5000000000   -0.0892427940          0.3523
C161       C    0.5892427940    0.5000000000    0.0000000000          0.3428
Zn162     Zn    0.4720723957    0.5279276043    0.4720723957          1.4972
Zn163     Zn    0.5279276043    0.4720723957    0.4720723957          1.4936
Zn164     Zn    0.5279276043    0.5279276043    0.5279276043          1.4911
Zn165     Zn    0.4720723957    0.4720723957    0.5279276043          1.4948
O166       O    0.5000000000    0.5000000000    0.5000000000         -2.2699
O167       O    0.4794752534    0.5205247466    0.4253586702         -1.1762
O168       O    0.5746413298    0.4794752534    0.4794752534         -1.1744
O169       O    0.5205247466    0.5746413298    0.5205247466         -1.1696
O170       O    0.5205247466    0.4794752534    0.4253586702         -1.1764
O171       O    0.4794752534    0.5746413298    0.4794752534         -1.1724
O172       O    0.5746413298    0.5205247466    0.5205247466         -1.1782
O173       O    0.4794752534    0.4794752534    0.5746413298         -1.1721
O174       O    0.5205247466    0.4253586702    0.4794752534         -1.1797
O175       O    0.5205247466    0.5205247466    0.5746413298         -1.1736
O176       O    0.4794752534    0.4253586702    0.5205247466         -1.1782
O177       O    0.4253586702    0.4794752534    0.5205247466         -1.1773
O178       O    0.4253586702    0.5205247466    0.4794752534         -1.1752
C179       C    0.5000000000    0.5000000000    0.4107572060          0.3427
C180       C    0.5892427940    0.5000000000    0.5000000000          0.3476
C181       C    0.5000000000    0.5892427940    0.5000000000          0.3372
C182       C    0.5000000000    0.5000000000    0.5892427940          0.3409
C183       C    0.5000000000    0.4107572060    0.5000000000          0.3523
C184       C    0.4107572060    0.5000000000    0.5000000000          0.3428
C783       C    0.5000000000    0.5000000000   -0.1276021506         -0.4247
C784       C    0.4857292882    0.5249404605   -0.1463106990         -0.4061
C785       C    0.4829747231    0.5238282256   -0.1802931837         -0.4078
C786       C    0.4940455080    0.4989660653   -0.2001403331         -0.4278
C787       C    0.5083923193    0.4746237957   -0.1818714030          0.5538
C788       C    0.5108097481    0.4752926354   -0.1479071311          0.5555
C789       C    0.4852651788    0.4967111765   -0.2398214813         -0.4266
H790       H    0.4697056028    0.5440959123   -0.1924750750         -0.3913
Cl791     Cl    0.4685389860    0.5605849078   -0.1290252327         -0.3777
O792       O    0.5193890691    0.4487397780   -0.1316399662          0.5397
H793       H    0.5166426971    0.4521934201   -0.1947379572          0.5374
H794       H    0.5050515306    0.4553695705   -0.1130152366          0.5535
C795       C    0.5013227010    0.5176700296   -0.2698983596         -0.4303
C796       C    0.5007354020    0.4958438639   -0.3038165097          0.5574
N797       N    0.4790425902    0.4683125531   -0.2918415674          0.5603
N798       N    0.4867629080    0.4634352065   -0.2559693159          0.5563
C799       C    0.4917718252    0.5110766762   -0.3402148064          0.5667
H800       H    0.4692633660    0.4473288605   -0.2470252916          0.5613
H801       H    0.4548050665    0.4759141963   -0.2918748870         -0.4207
H802       H    0.5269946572    0.5243685160   -0.2639042646          0.5566
H803       H    0.5256584900    0.4851302105   -0.3060736765          0.5363
H804       H    0.4872386368    0.5407129864   -0.2732543633         -0.4113
H805       H    0.4588311208    0.5032849151   -0.2407747613         -0.4067
C806       C    0.5000000000    0.5000000000   -0.3723978494          0.5537
H807       H    0.5144398221    0.4771368571   -0.3744558997           0.534
H808       H    0.4773282916    0.5339286558   -0.3385700201         -0.4137
C757       C    0.5000000000    0.5000000000    0.3723978494         -0.4247
C758       C    0.4881360903    0.4738288818    0.3536893010         -0.4061
C759       C    0.4906504938    0.4722469619    0.3197068163         -0.4078
C760       C    0.5043243973    0.4957780829    0.2998596669         -0.4278
C761       C    0.5156588043    0.5216606697    0.3181285970          0.5538
C762       C    0.5137012419    0.5232288719    0.3520928689          0.5555
C763       C    0.5112930638    0.4899801185    0.2601785187         -0.4266
H764       H    0.4819883588    0.4496236090    0.3075249250         -0.3913
Cl765     Cl    0.4693038875    0.4390239790    0.3709747673         -0.3777
O766       O    0.5302044648    0.5457300412    0.3683600338          0.5397
H767       H    0.5290125524    0.5414815652    0.3052620428          0.5374
H768       H    0.5332239894    0.5302251506    0.3869847634          0.5535
C769       C    0.4849006455    0.4907269758    0.2301016404         -0.4303
C770       C    0.5029387875    0.5030294903    0.1961834903          0.5574
N771       N    0.5379587541    0.5015621469    0.2081584326          0.5603
N772       N    0.5373927407    0.5106765007    0.2440306841          0.5563
C773       C    0.4958376041    0.4868443899    0.1597851936          0.5667
H774       H    0.5606955351    0.5059195973    0.2529747084          0.5613
H775       H    0.5459865822    0.4774624268    0.2081251130         -0.4207
H776       H    0.4644399974    0.5076172375    0.2360957354          0.5566
H777       H    0.4970324611    0.5295069901    0.1939263235          0.5363
H778       H    0.4744657494    0.4658181087    0.2267456367         -0.4113
H779       H    0.5214402176    0.4647014964    0.2592252387         -0.4067
C780       C    0.5000000000    0.5000000000    0.1276021506          0.5537
H781       H    0.5100808358    0.5250920011    0.1255441003           0.534
H782       H    0.4857679913    0.4617559158    0.1614299799         -0.4137
C731       C    0.5000000000    0.8723978494    0.5000000000         -0.4247
C732       C    0.5286360395    0.8536893010    0.5023784500         -0.4061
C733       C    0.5292809253    0.8197068163    0.4994786538         -0.4078
C734       C    0.5025230400    0.7998596669    0.4945082548         -0.4278
C735       C    0.4743367013    0.8181285970    0.4925315419          0.5538
C736       C    0.4735175960    0.8520928689    0.4949022750          0.5555
C737       C    0.5056417904    0.7601785187    0.4859963749         -0.4266
H738       H    0.5534995219    0.8075249250    0.5000338655         -0.3913
Cl739     Cl    0.5677455428    0.8709747673    0.5084183068         -0.3777
O740       O    0.4467788984    0.8683600338    0.4869209823          0.5397
H741       H    0.4511808353    0.8052620428    0.4866157702          0.5374
H742       H    0.4603671808    0.8869847634    0.4788663103          0.5535
C743       C    0.5138081530    0.7301016404    0.5111047015         -0.4303
C744       C    0.4961590700    0.6961834903    0.4982502742          0.5574
N745       N    0.4857718011    0.7081584326    0.4647740767          0.5603
N746       N    0.4773777969    0.7440306841    0.4683702568          0.5563
C747       C    0.5137892952    0.6597851936    0.4994990485          0.5667
H748       H    0.4740265792    0.7529747084    0.4448241808          0.5613
H749       H    0.5057718472    0.7081251130    0.4491139142         -0.4207
H750       H    0.5047765692    0.7360957354    0.5360516363          0.5566
H751       H    0.4732065661    0.6939263235    0.5127114378          0.5363
H752       H    0.5407751061    0.7267456367    0.5125614636         -0.4113
H753       H    0.5260399206    0.7592252387    0.4679439582         -0.4067
C754       C    0.5000000000    0.6276021506    0.5000000000          0.5537
H755       H    0.4729795549    0.6255441003    0.4989382510           0.534
H756       H    0.5408026469    0.6614299799    0.5005514127         -0.4137
C705       C    0.5000000000    1.3723978494    0.5000000000         -0.4247
C706       C    0.5146423981    1.3536893010    0.4752759235         -0.4061
C707       C    0.5123151458    1.3197068163    0.4734296862         -0.4078
C708       C    0.4961609013    1.2998596669    0.4953324184         -0.4278
C709       C    0.4820762687    1.3181285970    0.5198273201          0.5538
C710       C    0.4838514826    1.3520928689    0.5215993034          0.5555
C711       C    0.4898648171    1.2601785187    0.4888103002         -0.4266
H712       H    0.5233885865    1.3075249250    0.4518837448         -0.3913
Cl713     Cl    0.5371515532    1.3709747673    0.4427279427         -0.3777
O714       O    0.4649968541    1.3683600338    0.5421702043          0.5397
H715       H    0.4666441732    1.3052620428    0.5380767287          0.5374
H716       H    0.4636831408    1.3869847634    0.5264287521          0.5535
C717       C    0.5160190839    1.2301016404    0.4924258046         -0.4303
C718       C    0.4967488864    1.1961834903    0.5026915690          0.5574
N719       N    0.4620967767    1.2081584326    0.4974206631          0.5603
N720       N    0.4616672353    1.2440306841    0.5065424673          0.5563
C721       C    0.5055697822    1.1597851936    0.4873756924          0.5667
H722       H    0.4390207658    1.2529747084    0.4992770855          0.5613
H723       H    0.4567401594    1.2081251130    0.4725902546         -0.4207
H724       H    0.5345194572    1.2360957354    0.5114430400          0.5566
H725       H    0.4997377642    1.1939263235    0.5296546789          0.5363
H726       H    0.5291035519    1.2267456367    0.4688009148         -0.4113
H727       H    0.4825298048    1.2592252387    0.4625772855         -0.4067
C728       C    0.5000000000    1.1276021506    0.5000000000          0.5537
H729       H    0.4872475521    1.1255441003    0.5238454784           0.534
H730       H    0.5183106899    1.1614299799    0.4635324983         -0.4169
C679       C    0.5000000000    0.6276021506    0.0000000000         -0.4247
C680       C    0.4741365179    0.6463106990   -0.0125203865         -0.4061
C681       C    0.4750565369    0.6802931837   -0.0153449679         -0.4078
C682       C    0.5006216746    0.7001403331   -0.0060115320         -0.4278
C683       C    0.5258936217    0.6818714030    0.0066259431          0.5538
C684       C    0.5253927436    0.6479071311    0.0090836717          0.5555
C685       C    0.5022669247    0.7398214813   -0.0149262309         -0.4266
H686       H    0.4539236817    0.6924750750   -0.0271877340         -0.3913
Cl687     Cl    0.4373934934    0.6290252327   -0.0272167557         -0.3777
O688       O    0.5524730985    0.6316399662    0.0158151919          0.5397
H689       H    0.5488386308    0.6947379572    0.0133130232          0.5374
H690       H    0.5448722680    0.6130152366    0.0019679346          0.5535
C691       C    0.4824629013    0.7698983596    0.0025356763         -0.4303
C692       C    0.5041968942    0.8038165097    0.0004476188          0.5574
N693       N    0.5301699511    0.7918415674   -0.0230885548          0.5603
N694       N    0.5355670714    0.7559693159   -0.0157222186          0.5563
C695       C    0.4883832972    0.8402148064   -0.0074463301          0.5667
H696       H    0.5504308489    0.7470252916   -0.0342887603          0.5613
H697       H    0.5209182236    0.7918748870   -0.0467454369         -0.4207
H698       H    0.4775471294    0.7639042646    0.0286077734          0.5566
H699       H    0.5166004358    0.8060736765    0.0245742606          0.5363
H700       H    0.4585052694    0.7732543633   -0.0099290978         -0.4113
H701       H    0.4938894914    0.7407747613   -0.0408451829         -0.4067
C702       C    0.5000000000    0.8723978494    0.0000000000          0.5537
H703       H    0.5238027289    0.8744558997    0.0128320639           0.534
H704       H    0.4645914496    0.8385700201   -0.0202828649         -0.4137
C653       C    0.5000000000    1.3723978494    0.0000000000         -0.4247
C654       C    0.5088746067    1.3536893010    0.0273298580         -0.4061
C655       C    0.5117982987    1.3197068163    0.0268038157         -0.4078
C656       C    0.5060401364    1.2998596669    0.0002043259         -0.4278
C657       C    0.4969688295    1.3181285970   -0.0265555036          0.5538
C658       C    0.4944657456    1.3520928689   -0.0263946311          0.5555
C659       C    0.5150959441    1.2601785187   -0.0002092566         -0.4266
H660       H    0.5206470476    1.3075249250    0.0493548317         -0.3913
Cl661     Cl    0.5184204911    1.3709747673    0.0657344047         -0.3777
O662       O    0.4914918980    1.3683600338   -0.0541401751          0.5397
H663       H    0.4934747977    1.3052620428   -0.0501983086          0.5374
H664       H    0.5041726445    1.3869847634   -0.0447211610          0.5535
C665       C    0.4950953496    1.2301016404    0.0170271516         -0.4303
C666       C    0.5001291729    1.1961834903   -0.0042187199          0.5574
N667       N    0.5269889090    1.2081584326   -0.0267377281          0.5603
N668       N    0.5204278154    1.2440306841   -0.0330894105          0.5563
C669       C    0.5057917666    1.1597851936    0.0125240191          0.5667
H670       H    0.5408486893    1.2529747084   -0.0452810578          0.5613
H671       H    0.5491623087    1.2081251130   -0.0143448721         -0.4207
H672       H    0.4685963679    1.2360957354    0.0183397924          0.5566
H673       H    0.4779204261    1.1939263235   -0.0197980091          0.5363
H674       H    0.5041748899    1.2267456367    0.0424613936         -0.4113
H675       H    0.5396295458    1.2592252387    0.0116261077         -0.4067
C676       C    0.5000000000    1.1276021506    0.0000000000          0.5537
H677       H    0.4905354702    1.1255441003   -0.0253308990           0.534
H678       H    0.5152622102    1.1614299799    0.0378447485         -0.4137
C627       C    0.5000000000    1.0000000000   -0.1276021506         -0.4247
C628       C    0.5270173541    1.0097848026   -0.1463106990         -0.4061
C629       C    0.5263937035    1.0126892398   -0.1802931837         -0.4078
C630       C    0.5000019501    1.0060435910   -0.2001403331         -0.4278
C631       C    0.4735608917    0.9960812866   -0.1818714030          0.5538
C632       C    0.4738054927    0.9935849935   -0.1479071311          0.5555
C633       C    0.4992853550    1.0150804707   -0.2398214813         -0.4266
H634       H    0.5486357614    1.0222881740   -0.1924750750         -0.3913
Cl635     Cl    0.5650807074    1.0206113557   -0.1290252327         -0.3777
O636       O    0.4461750918    0.9896837210   -0.1316399662          0.5397
H637       H    0.4500483478    0.9917975068   -0.1947379572          0.5374
H638       H    0.4551641935    1.0026727628   -0.1130152366          0.5535
C639       C    0.5171818405    0.9956682748   -0.2698983596         -0.4303
C640       C    0.4957793205    0.9999878315   -0.3038165097          0.5574
N641       N    0.4723735110    1.0260784283   -0.2918415674          0.5603
N642       N    0.4662450969    1.0193083206   -0.2559693159          0.5563
C643       C    0.5123230512    1.0062079003   -0.3402148064          0.5667
H644       H    0.4533764695    1.0393094901   -0.2470252916          0.5613
H645       H    0.4840169140    1.0486543823   -0.2918748870         -0.4207
H646       H    0.5193810952    0.9692281096   -0.2639042646          0.5566
H647       H    0.4809524549    0.9772698487   -0.3060736765          0.5363
H648       H    0.5422977792    1.0055944191   -0.2732543633         -0.4113
H649       H    0.5102925448    1.0399966349   -0.2407747613         -0.4067
C650       C    0.5000000000    1.0000000000   -0.3723978494          0.5537
H651       H    0.4750002382    0.9896925426   -0.3744558997           0.534
H652       H    0.5373124510    1.0165209275   -0.3385700201         -0.4137
C601       C    0.5000000000    1.0000000000    0.1276021506         -0.4247
C602       C    0.4881360903    1.0261711182    0.1463106990         -0.4061
C603       C    0.4906504938    1.0277530381    0.1802931837         -0.4078
C604       C    0.5043243973    1.0042219171    0.2001403331         -0.4278
C605       C    0.5156588043    0.9783393303    0.1818714030          0.5538
C606       C    0.5137012419    0.9767711281    0.1479071311          0.5555
C607       C    0.5112930638    1.0100198815    0.2398214813         -0.4266
H608       H    0.4819883588    1.0503763910    0.1924750750         -0.3913
Cl609     Cl    0.4693038875    1.0609760210    0.1290252327         -0.3777
O610       O    0.5302044648    0.9542699588    0.1316399662          0.5397
H611       H    0.5290125524    0.9585184348    0.1947379572          0.5374
H612       H    0.5332239894    0.9697748494    0.1130152366          0.5535
C613       C    0.4849006455    1.0092730242    0.2698983596         -0.4303
C614       C    0.5029387875    0.9969705097    0.3038165097          0.5574
N615       N    0.5379587541    0.9984378531    0.2918415674          0.5603
N616       N    0.5373927407    0.9893234993    0.2559693159          0.5563
C617       C    0.4958376041    1.0131556101    0.3402148064          0.5667
H618       H    0.5606955351    0.9940804027    0.2470252916          0.5613
H619       H    0.5459865822    1.0225375732    0.2918748870         -0.4207
H620       H    0.4644399974    0.9923827625    0.2639042646          0.5566
H621       H    0.4970324611    0.9704930099    0.3060736765          0.5363
H622       H    0.4744657494    1.0341818913    0.2732543633         -0.4113
H623       H    0.5214402176    1.0352985036    0.2407747613         -0.4067
C624       C    0.5000000000    1.0000000000    0.3723978494          0.5537
H625       H    0.5100808358    0.9749079989    0.3744558997           0.534
H626       H    0.4857679913    1.0382440842    0.3385700201         -0.4137
C575       C    0.8723978494    0.5000000000    0.5000000000         -0.4247
C576       C    0.8536893010    0.5278764948    0.5069699941         -0.4061
C577       C    0.8197068163    0.5275531975    0.5099229882         -0.4078
C578       C    0.7998596669    0.5006201126    0.5060116933         -0.4278
C579       C    0.8181285970    0.4732987348    0.4988061816          0.5538
C580       C    0.8520928689    0.4732867180    0.4962979622          0.5555
C581       C    0.7601785187    0.5008316191    0.5150744726         -0.4266
H582       H    0.8075249250    0.5506604307    0.5171965331         -0.3913
Cl583     Cl    0.8709747673    0.5668476095    0.5138464275         -0.3777
O584       O    0.8683600338    0.4454021924    0.4952433453          0.5397
H585       H    0.8052620428    0.4494713435    0.4969498660          0.5374
H586       H    0.8869847634    0.4556727396    0.5072448044          0.5535
C587       C    0.7301016404    0.5166486495    0.4939335385         -0.4303
C588       C    0.6961834903    0.4958002130    0.5004196103          0.5574
N589       N    0.7081584326    0.4751858593    0.5287674423          0.5603
N590       N    0.7440306841    0.4683971034    0.5226596922          0.5563
C591       C    0.6597851936    0.5128933967    0.5049148688          0.5667
H592       H    0.7529747084    0.4576418039    0.5438722330          0.5613
H593       H    0.7081251130    0.4890773898    0.5500340338         -0.4207
H594       H    0.7360957354    0.5161319196    0.4674070980          0.5566
H595       H    0.6939263235    0.4787273895    0.4793373575          0.5363
H596       H    0.7267456367    0.5426481590    0.5012386205         -0.4113
H597       H    0.7592252387    0.5143296432    0.5387340755         -0.4067
C598       C    0.6276021506    0.5000000000    0.5000000000          0.5537
H599       H    0.6255441003    0.4740770552    0.4923037217           0.534
H600       H    0.6614299799    0.5388066037    0.5126177477         -0.4137
C549       C    1.1276021506    0.5000000000    0.5000000000         -0.4247
C550       C    1.1463106990    0.4930300059    0.4721235052         -0.4061
C551       C    1.1802931837    0.4900770118    0.4724468025         -0.4078
C552       C    1.2001403331    0.4939883067    0.4993798874         -0.4278
C553       C    1.1818714030    0.5011938184    0.5267012652          0.5538
C554       C    1.1479071311    0.5037020378    0.5267132820          0.5555
C555       C    1.2398214813    0.4849255274    0.4991683809         -0.4266
H556       H    1.1924750750    0.4828034669    0.4493395693         -0.3913
Cl557     Cl    1.1290252327    0.4861535725    0.4331523905         -0.3777
O558       O    1.1316399662    0.5047566547    0.5545978076          0.5397
H559       H    1.1947379572    0.5030501340    0.5505286565          0.5374
H560       H    1.1130152366    0.4927551956    0.5443272604          0.5535
C561       C    1.2698983596    0.5060664615    0.4833513505         -0.4303
C562       C    1.3038165097    0.4995803897    0.5041997870          0.5574
N563       N    1.2918415674    0.4712325577    0.5248141407          0.5603
N564       N    1.2559693159    0.4773403078    0.5316028966          0.5563
C565       C    1.3402148064    0.4950851312    0.4871066033          0.5667
H566       H    1.2470252916    0.4561277670    0.5423581961          0.5613
H567       H    1.2918748870    0.4499659662    0.5109226102         -0.4207
H568       H    1.2639042646    0.5325929020    0.4838680804          0.5566
H569       H    1.3060736765    0.5206626425    0.5212726105          0.5363
H570       H    1.2732543633    0.4987613795    0.4573518410         -0.4113
H571       H    1.2407747613    0.4612659245    0.4856703568         -0.4067
C572       C    1.3723978494    0.5000000000    0.5000000000          0.5537
H573       H    1.3744558997    0.5076962783    0.5259229448           0.534
H574       H    1.3385700201    0.4873822523    0.4611933963         -0.4137
C523       C    0.8723978494    0.5000000000    0.0000000000         -0.4247
C524       C    0.8536893010    0.4732281548    0.0104378201         -0.4061
C525       C    0.8197068163    0.4717838883    0.0078419023         -0.4078
C526       C    0.7998596669    0.4960170029   -0.0045454077         -0.4278
C527       C    0.8181285970    0.5224722301   -0.0144700256          0.5538
C528       C    0.8520928689    0.5239327756   -0.0124308798          0.5555
C529       C    0.7601785187    0.4906025947   -0.0118160944         -0.4266
H530       H    0.8075249250    0.4487270271    0.0152735796         -0.3913
Cl531     Cl    0.8709747673    0.4374599164    0.0273690409         -0.3777
O532       O    0.8683600338    0.5472897445   -0.0276988523          0.5397
H533       H    0.8052620428    0.5429832643   -0.0267373791          0.5374
H534       H    0.8869847634    0.5319698893   -0.0315486827          0.5535
C535       C    0.7301016404    0.4899275696    0.0145782588         -0.4303
C536       C    0.6961834903    0.5031833029   -0.0027714376          0.5574
N537       N    0.7081584326    0.5036033387   -0.0378196148          0.5603
N538       N    0.7440306841    0.5126740054   -0.0367637636          0.5563
C539       C    0.6597851936    0.4866393898    0.0034481460          0.5667
H540       H    0.7529747084    0.5091784736   -0.0602888483          0.5613
H541       H    0.7081251130    0.4799707321   -0.0471331771         -0.4207
H542       H    0.7360957354    0.5056918683    0.0359185012          0.5566
H543       H    0.6939263235    0.5293044492    0.0045517037          0.5363
H544       H    0.7267456367    0.4644930741    0.0236570890         -0.4113
H545       H    0.7592252387    0.4659068866   -0.0233093736         -0.4067
C546       C    0.6276021506    0.5000000000    0.0000000000          0.5537
H547       H    0.6255441003    0.5255983035   -0.0087154246           0.534
H548       H    0.6614299799    0.4610452123    0.0121525538         -0.4137
C497       C    1.1276021506    0.5000000000    0.0000000000         -0.4247
C498       C    1.1463106990    0.4871231766   -0.0256878804         -0.4061
C499       C    1.1802931837    0.4843115870   -0.0247288918         -0.4078
C500       C    1.2001403331    0.4939976391    0.0007047412         -0.4278
C501       C    1.1818714030    0.5069833603    0.0257995241          0.5538
C502       C    1.1479071311    0.5094339280    0.0252647091          0.5555
C503       C    1.2398214813    0.4851065427    0.0024731043         -0.4266
H504       H    1.1924750750    0.4721777331   -0.0456959676         -0.3913
Cl505     Cl    1.1290252327    0.4719201387   -0.0622241741         -0.3777
O506       O    1.1316399662    0.5165392651    0.0522493930          0.5397
H507       H    1.1947379572    0.5139870792    0.0486498722          0.5374
H508       H    1.1130152366    0.5025882293    0.0448407657          0.5535
C509       C    1.2698983596    0.5022929351   -0.0175704847         -0.4303
C510       C    1.3038165097    0.5005056097    0.0041903034          0.5574
N511       N    1.2918415674    0.4773308354    0.0304863296          0.5603
N512       N    1.2559693159    0.4847710975    0.0357810740          0.5563
C513       C    1.3402148064    0.4923937489   -0.0115126261          0.5667
H514       H    1.2470252916    0.4664118636    0.0509001640          0.5613
H515       H    1.2918748870    0.4535482844    0.0215626082         -0.4207
H516       H    1.2639042646    0.5282945653   -0.0228463053          0.5566
H517       H    1.3060736765    0.5248014579    0.0162590417          0.5363
H518       H    1.2732543633    0.4894980724   -0.0413534662         -0.4113
H519       H    1.2407747613    0.4590742276   -0.0055451271         -0.4067
C520       C    1.3723978494    0.5000000000    0.0000000000          0.5537
H521       H    1.3744558997    0.5131599754    0.0236230145           0.534
H522       H    1.3385700201    0.4792294534   -0.0351246985         -0.4137
C471       C    1.0000000000    0.5000000000   -0.1276021506         -0.4247
C472       C    1.0264614324    0.4887985546   -0.1463106990         -0.4061
C473       C    1.0279795656    0.4913519772   -0.1802931837         -0.4078
C474       C    1.0041117381    0.5044292896   -0.2001403331         -0.4278
C475       C    0.9779520728    0.5151086621   -0.1818714030          0.5538
C476       C    0.9764336376    0.5131122495   -0.1479071311          0.5555
C477       C    1.0097324699    0.5115416786   -0.2398214813         -0.4266
H478       H    1.0508137705    0.4832619978   -0.1924750750         -0.3913
Cl479     Cl    1.0617293005    0.4708483291   -0.1290252327         -0.3777
O480       O    0.9535242239    0.5290439080   -0.1316399662          0.5397
H481       H    0.9578013534    0.5279593039   -0.1947379572          0.5374
H482       H    0.9689482035    0.5324527216   -0.1130152366          0.5535
C483       C    1.0096501251    0.4851388234   -0.2698983596         -0.4303
C484       C    0.9968975025    0.5028616067   -0.3038165097          0.5574
N485       N    0.9974829568    0.5379074110   -0.2918415674          0.5603
N486       N    0.9883857364    0.5371121760   -0.2559693159          0.5563
C487       C    1.0132562066    0.4961700388   -0.3402148064          0.5667
H488       H    0.9925546204    0.5605273156   -0.2470252916          0.5613
H489       H    1.0213729883    0.5465392665   -0.2918748870         -0.4207
H490       H    0.9932801922    0.4642595429   -0.2639042646          0.5566
H491       H    0.9705770481    0.4962907341   -0.3060736765          0.5363
H492       H    1.0348137392    0.4753341691   -0.2732543633         -0.4113
H493       H    1.0347476882    0.5223218602   -0.2407747613         -0.4067
C494       C    1.0000000000    0.5000000000   -0.3723978494          0.5537
H495       H    0.9746622215    0.5094460968   -0.3744558997           0.534
H496       H    1.0385901768    0.4867350726   -0.3385700201         -0.4137
C445       C    1.0000000000    0.5000000000    0.1276021506         -0.4247
C446       C    1.0118639097    0.4738288818    0.1463106990         -0.4061
C447       C    1.0093495062    0.4722469619    0.1802931837         -0.4078
C448       C    0.9956756027    0.4957780829    0.2001403331         -0.4278
C449       C    0.9843411957    0.5216606697    0.1818714030          0.5538
C450       C    0.9862987581    0.5232288719    0.1479071311          0.5555
C451       C    0.9887069362    0.4899801185    0.2398214813         -0.4266
H452       H    1.0180116412    0.4496236090    0.1924750750         -0.3913
Cl453     Cl    1.0306961125    0.4390239790    0.1290252327         -0.3777
O454       O    0.9697955352    0.5457300412    0.1316399662          0.5397
H455       H    0.9709874476    0.5414815652    0.1947379572          0.5374
H456       H    0.9667760106    0.5302251506    0.1130152366          0.5535
C457       C    1.0150993545    0.4907269758    0.2698983596         -0.4303
C458       C    0.9970612125    0.5030294903    0.3038165097          0.5574
N459       N    0.9620412459    0.5015621469    0.2918415674          0.5603
N460       N    0.9626072593    0.5106765007    0.2559693159          0.5563
C461       C    1.0041623959    0.4868443899    0.3402148064          0.5667
H462       H    0.9393044649    0.5059195973    0.2470252916          0.5613
H463       H    0.9540134178    0.4774624268    0.2918748870         -0.4207
H464       H    1.0355600026    0.5076172375    0.2639042646          0.5566
H465       H    1.0029675389    0.5295069901    0.3060736765          0.5363
H466       H    1.0255342506    0.4658181087    0.2732543633         -0.4113
H467       H    0.9785597824    0.4647014964    0.2407747613         -0.4067
C468       C    1.0000000000    0.5000000000    0.3723978494          0.5537
H469       H    0.9899191642    0.5250920011    0.3744558997           0.534
H470       H    1.0142320087    0.4617559158    0.3385700201         -0.4137
C419       C    1.0000000000   -0.1276021506    0.5000000000         -0.4247
C420       C    0.9881360903   -0.1463106990    0.5261711182         -0.4061
C421       C    0.9906504938   -0.1802931837    0.5277530381         -0.4078
C422       C    1.0043243973   -0.2001403331    0.5042219171         -0.4278
C423       C    1.0156588043   -0.1818714030    0.4783393303          0.5538
C424       C    1.0137012419   -0.1479071311    0.4767711281          0.5555
C425       C    1.0112930638   -0.2398214813    0.5100198815         -0.4266
H426       H    0.9819883588   -0.1924750750    0.5503763910         -0.3913
Cl427     Cl    0.9693038875   -0.1290252327    0.5609760210         -0.3777
O428       O    1.0302044648   -0.1316399662    0.4542699588          0.5397
H429       H    1.0290125524   -0.1947379572    0.4585184348          0.5374
H430       H    1.0332239894   -0.1130152366    0.4697748494          0.5535
C431       C    0.9849006455   -0.2698983596    0.5092730242         -0.4303
C432       C    1.0029387875   -0.3038165097    0.4969705097          0.5574
N433       N    1.0379587541   -0.2918415674    0.4984378531          0.5603
N434       N    1.0373927407   -0.2559693159    0.4893234993          0.5563
C435       C    0.9958376041   -0.3402148064    0.5131556101          0.5667
H436       H    1.0606955351   -0.2470252916    0.4940804027          0.5613
H437       H    1.0459865822   -0.2918748870    0.5225375732         -0.4207
H438       H    0.9644399974   -0.2639042646    0.4923827625          0.5566
H439       H    0.9970324611   -0.3060736765    0.4704930099          0.5363
H440       H    0.9744657494   -0.2732543633    0.5341818913         -0.4113
H441       H    1.0214402176   -0.2407747613    0.5352985036         -0.4067
C442       C    1.0000000000   -0.3723978494    0.5000000000          0.5537
H443       H    1.0100808358   -0.3744558997    0.4749079989           0.534
H444       H    0.9857679913   -0.3385700201    0.5382440842         -0.4137
C393       C    1.0000000000    0.3723978494    0.5000000000         -0.4247
C394       C    1.0284232114    0.3536893010    0.4957808962         -0.4061
C395       C    1.0283893425    0.3197068163    0.4928104504         -0.4078
C396       C    1.0012032406    0.2998596669    0.4940773985         -0.4278
C397       C    0.9733095413    0.3181285970    0.4985850166          0.5538
C398       C    0.9730530545    0.3520928689    0.5010801164          0.5555
C399       C    1.0022972730    0.2601785187    0.4850784099         -0.4266
H400       H    1.0520956039    0.3075249250    0.4878242849         -0.3913
Cl401     Cl    1.0678790718    0.3709747673    0.4927365256         -0.3777
O402       O    0.9451985428    0.3683600338    0.4994112382          0.5397
H403       H    0.9494146795    0.3052620428    0.4981095495          0.5374
H404       H    0.9565901921    0.3869847634    0.4884682274          0.5535
C405       C    1.0159779219    0.2301016404    0.5076606460         -0.4303
C406       C    0.9958611268    0.1961834903    0.4991729499          0.5574
N407       N    0.9781086094    0.2081584326    0.4689504536          0.5603
N408       N    0.9707567454    0.2440306841    0.4743672712          0.5563
C409       C    1.0133111309    0.1597851936    0.4963655247          0.5667
H410       H    0.9621206966    0.2529747084    0.4522072392          0.5613
H411       H    0.9940072542    0.2081251130    0.4491394559         -0.4207
H412       H    1.0128775821    0.2360957354    0.5340103509          0.5566
H413       H    0.9768143145    0.1939263235    0.5184903417          0.5363
H414       H    1.0425657569    0.2267456367    0.5029250626         -0.4113
H415       H    1.0180375812    0.2592252387    0.4628474369         -0.4067
C416       C    1.0000000000    0.1276021506    0.5000000000          0.5537
H417       H    0.9734502272    0.1255441003    0.5051323806           0.534
H418       H    1.0398518557    0.1614299799    0.4912256257         -0.4137
C367       C    0.6276021506   -0.0000000000    0.5000000000         -0.4247
C368       C    0.6463106990    0.0205527730    0.4799185831         -0.4061
C369       C    0.6802931837    0.0187838777    0.4775320155         -0.4078
C370       C    0.7001403331   -0.0024974201    0.4944965566         -0.4278
C371       C    0.6818714030   -0.0224520790    0.5145012729          0.5538
C372       C    0.6479071311   -0.0211970841    0.5166729765          0.5555
C373       C    0.7398214813   -0.0068868789    0.4865648887         -0.4266
H374       H    0.6924750750    0.0350656470    0.4595945501         -0.3913
Cl375     Cl    0.6290252327    0.0507320387    0.4543208286         -0.3777
O376       O    0.6316399662   -0.0447410368    0.5316510028          0.5397
H377       H    0.6947379572   -0.0420885811    0.5281247184          0.5374
H378       H    0.6130152366   -0.0419278739    0.5161073458          0.5535
C379       C    0.7698983596    0.0174352068    0.4968388214         -0.4303
C380       C    0.8038165097   -0.0038378599    0.5017564495          0.5574
N381       N    0.7918415674   -0.0359378445    0.4876801523          0.5603
N382       N    0.7559693159   -0.0387180813    0.4963785488          0.5563
C383       C    0.8402148064    0.0086528885    0.4892518310          0.5667
H384       H    0.7470252916   -0.0587059032    0.4834891993          0.5613
H385       H    0.7918748870   -0.0346724225    0.4623100668         -0.4207
H386       H    0.7639042646    0.0303713646    0.5200029074          0.5566
H387       H    0.8060736765   -0.0079430638    0.5285723028          0.5363
H388       H    0.7732543633    0.0361983089    0.4774150031         -0.4113
H389       H    0.7407747613   -0.0071684665    0.4593271544         -0.4067
C390       C    0.8723978494   -0.0000000000    0.5000000000          0.5537
H391       H    0.8744558997   -0.0184996403    0.5197229581           0.534
H392       H    0.8385700201    0.0271407910    0.4695280866         -0.4137
C341       C    1.1276021506   -0.0000000000    0.5000000000         -0.4247
C342       C    1.1463106990    0.0238796459    0.4840174378         -0.4061
C343       C    1.1802931837    0.0225772053    0.4813475420         -0.4078
C344       C    1.2001403331   -0.0014484645    0.4941325519         -0.4278
C345       C    1.1818714030   -0.0247260585    0.5101491278          0.5538
C346       C    1.1479071311   -0.0238895381    0.5125137720          0.5555
C347       C    1.2398214813   -0.0043128141    0.4855317261         -0.4266
H348       H    1.1924750750    0.0418657081    0.4666914054         -0.3913
Cl349     Cl    1.1290252327    0.0582324933    0.4643727187         -0.3777
O350       O    1.1316399662   -0.0497762617    0.5229318584          0.5397
H351       H    1.1947379572   -0.0465234654    0.5199503287          0.5374
H352       H    1.1130152366   -0.0441669933    0.5081651638          0.5535
C353       C    1.2698983596    0.0177192775    0.5000817942         -0.4303
C354       C    1.3038165097   -0.0040944190    0.5010247032          0.5574
N355       N    1.2918415674   -0.0330775376    0.4813135391          0.5603
N356       N    1.2559693159   -0.0374021528    0.4893565187          0.5563
C357       C    1.3402148064    0.0104731474    0.4910161924          0.5667
H358       H    1.2470252916   -0.0546946582    0.4730280891          0.5613
H359       H    1.2918748870   -0.0271922279    0.4566031027         -0.4207
H360       H    1.2639042646    0.0261994478    0.5252215192          0.5566
H361       H    1.3060736765   -0.0130360769    0.5266369940          0.5363
H362       H    1.2732543633    0.0397191533    0.4844183277         -0.4113
H363       H    1.2407747613    0.0003932641    0.4587021474         -0.4067
C364       C    1.3723978494   -0.0000000000    0.5000000000          0.5537
H365       H    1.3744558997   -0.0217955853    0.5160057561           0.534
H366       H    1.3385700201    0.0322573369    0.4750075159         -0.4137
C315       C   -0.0000000000   -0.3723978494    0.0000000000         -0.4247
C316       C    0.0207144933   -0.3536893010   -0.0199145563         -0.4061
C317       C    0.0230445608   -0.3197068163   -0.0180718733         -0.4078
C318       C    0.0054226294   -0.2998596669    0.0026683490         -0.4278
C319       C   -0.0151964913   -0.3181285970    0.0219874832          0.5538
C320       C   -0.0173278752   -0.3520928689    0.0206651702          0.5555
C321       C    0.0132131109   -0.2601785187    0.0073037672         -0.4266
H322       H    0.0414825521   -0.3075249250   -0.0337845801         -0.3913
Cl323     Cl    0.0472437472   -0.3709747673   -0.0492783401         -0.3777
O324       O   -0.0330350412   -0.3683600338    0.0437290797          0.5397
H325       H   -0.0294275120   -0.3052620428    0.0411882263          0.5374
H326       H   -0.0174109931   -0.3869847634    0.0414035085          0.5535
C327       C    0.0037050156   -0.2301016404   -0.0173277911         -0.4303
C328       C   -0.0018756406   -0.1961834903    0.0037810390          0.5574
N329       N    0.0111896611   -0.2081584326    0.0363056304          0.5603
N330       N    0.0024085537   -0.2440306841    0.0388124155          0.5563
C331       C    0.0110135769   -0.1597851936   -0.0083124448          0.5667
H332       H    0.0146663643   -0.2529747084    0.0591936429          0.5613
H333       H    0.0365869147   -0.2081251130    0.0358344195         -0.4207
H334       H   -0.0190430839   -0.2360957354   -0.0309822053          0.5566
H335       H   -0.0288067846   -0.1939263235    0.0070454177          0.5363
H336       H    0.0237062500   -0.2267456367   -0.0354741224         -0.4113
H337       H    0.0404287080   -0.2592252387    0.0084372301         -0.4067
C338       C   -0.0000000000   -0.1276021506    0.0000000000          0.5537
H339       H   -0.0202919866   -0.1255441003    0.0178736411           0.534
H340       H    0.0313059823   -0.1614299799   -0.0261743293         -0.4137
C289       C    0.0000000000    0.1276021506   -0.0000000000         -0.4247
C290       C   -0.0238904903    0.1463106990    0.0159663476         -0.4061
C291       C   -0.0258606559    0.1802931837    0.0137430297         -0.4078
C292       C   -0.0048696131    0.2001403331   -0.0035793665         -0.4278
C293       C    0.0188223994    0.1818714030   -0.0189763022          0.5538
C294       C    0.0206883755    0.1479071311   -0.0173001631          0.5555
C295       C   -0.0117247399    0.2398214813   -0.0095111403         -0.4266
H296       H   -0.0467719688    0.1924750750    0.0259727341         -0.3913
Cl297     Cl   -0.0551651253    0.1290252327    0.0402136222         -0.3777
O298       O    0.0402025878    0.1316399662   -0.0372464534          0.5397
H299       H    0.0362048381    0.1947379572   -0.0353787810          0.5374
H300       H    0.0244129670    0.1130152366   -0.0377014621          0.5535
C301       C   -0.0066911008    0.2698983596    0.0164075792         -0.4303
C302       C    0.0025106317    0.3038165097   -0.0033927882          0.5574
N303       N   -0.0046384659    0.2918415674   -0.0377066566          0.5603
N304       N    0.0044464390    0.2559693159   -0.0386320321          0.5563
C305       C   -0.0123024498    0.3402148064    0.0062486275          0.5667
H306       H   -0.0040407493    0.2470252916   -0.0608495025          0.5613
H307       H   -0.0297236135    0.2918748870   -0.0417038937         -0.4207
H308       H    0.0133048633    0.2639042646    0.0338454828          0.5566
H309       H    0.0295964510    0.3060736765   -0.0018758572          0.5363
H310       H   -0.0295688267    0.2732543633    0.0307584807         -0.4113
H311       H   -0.0383180924    0.2407747613   -0.0154075006         -0.4067
C312       C    0.0000000000    0.3723978494    0.0000000000          0.5537
H313       H    0.0231160584    0.3744558997   -0.0140313795           0.534
H314       H   -0.0354168554    0.3385700201    0.0202683596         -0.4137
C263       C   -0.3723978494   -0.0000000000    0.0000000000         -0.4247
C264       C   -0.3536893010   -0.0102920657    0.0268282158         -0.4061
C265       C   -0.3197068163   -0.0076883316    0.0282583430         -0.4078
C266       C   -0.2998596669    0.0045670022    0.0039582177         -0.4278
C267       C   -0.3181285970    0.0143475953   -0.0225505937          0.5538
C268       C   -0.3520928689    0.0123005364   -0.0240000276          0.5555
C269       C   -0.2601785187    0.0118670280    0.0093330039         -0.4266
H270       H   -0.3075249250   -0.0149945031    0.0513552808         -0.3913
Cl271     Cl   -0.3709747673   -0.0270285087    0.0626880066         -0.3777
O272       O   -0.3683600338    0.0274412551   -0.0474396867          0.5397
H273       H   -0.3052620428    0.0265032171   -0.0431280412          0.5374
H274       H   -0.3869847634    0.0313743463   -0.0321409955          0.5535
C275       C   -0.2301016404   -0.0145232638    0.0101515661         -0.4303
C276       C   -0.1961834903    0.0027540841   -0.0031983284          0.5574
N277       N   -0.2081584326    0.0377994586   -0.0038089692          0.5603
N278       N   -0.2440306841    0.0366942917   -0.0128737596          0.5563
C279       C   -0.1597851936   -0.0033754326    0.0133791655          0.5667
H280       H   -0.2529747084    0.0602380391   -0.0095062218          0.5613
H281       H   -0.2081251130    0.0472414102    0.0197726355         -0.4207
H282       H   -0.2360957354   -0.0359489255   -0.0054964396          0.5566
H283       H   -0.1939263235   -0.0047110101   -0.0292792612          0.5363
H284       H   -0.2267456367   -0.0234636330    0.0356350611         -0.4113
H285       H   -0.2592252387    0.0234944460    0.0339658400         -0.4067
C286       C   -0.1276021506   -0.0000000000    0.0000000000          0.5537
H287       H   -0.1255441003    0.0085760780   -0.0256453242           0.534
H288       H   -0.1614299799   -0.0119405165    0.0390203039         -0.4137
C237       C    0.3723978494   -0.0000000000    0.0000000000         -0.4247
C238       C    0.3536893010   -0.0122010262   -0.0260156634         -0.4061
C239       C    0.3197068163   -0.0097072695   -0.0276299350         -0.4078
C240       C    0.2998596669    0.0042694932   -0.0042774320         -0.4278
C241       C    0.3181285970    0.0159373333    0.0214565648          0.5538
C242       C    0.3520928689    0.0140001940    0.0230499260          0.5555
C243       C    0.2601785187    0.0111626738   -0.0101649412         -0.4266
H244       H    0.3075249250   -0.0186609544   -0.0501394931         -0.3913
Cl245     Cl    0.3709747673   -0.0314813045   -0.0605743669         -0.3777
O246       O    0.3683600338    0.0307927339    0.0453360111          0.5397
H247       H    0.3052620428    0.0295460345    0.0411032881          0.5374
H248       H    0.3869847634    0.0336116976    0.0297934050          0.5535
C249       C    0.2301016404   -0.0152178933   -0.0090771806         -0.4303
C250       C    0.1961834903    0.0029776805    0.0029912711          0.5574
N251       N    0.2081584326    0.0379757678    0.0010716246          0.5603
N252       N    0.2440306841    0.0375275506    0.0101925302          0.5563
C253       C    0.1597851936   -0.0043320068   -0.0131007379          0.5667
H254       H    0.2529747084    0.0607669454    0.0051349732          0.5613
H255       H    0.2081251130    0.0456915799   -0.0231297964         -0.4207
H256       H    0.2360957354   -0.0354586273    0.0080760041          0.5566
H257       H    0.1939263235   -0.0025860882    0.0295428654          0.5363
H258       H    0.2267456367   -0.0259737180   -0.0338491598         -0.4113
H259       H    0.2592252387    0.0209824043   -0.0355725455         -0.4067
C260       C    0.1276021506   -0.0000000000    0.0000000000          0.5537
H261       H    0.1255441003    0.0104041599    0.0249596719           0.534
H262       H    0.1614299799   -0.0147248991   -0.0380570282         -0.4137
C211       C    0.0000000000    0.0000000000   -0.3723978494         -0.4247
C212       C   -0.0121085188    0.0260588479   -0.3536893010         -0.4061
C213       C   -0.0096090426    0.0276642493   -0.3197068163         -0.4078
C214       C    0.0042846634    0.0042622360   -0.2998596669         -0.4278
C215       C    0.0158610003   -0.0215130527   -0.3181285970          0.5538
C216       C    0.0139182121   -0.0230995215   -0.3520928689          0.5555
C217       C    0.0111987181    0.0101252174   -0.2601785187         -0.4266
H218       H   -0.0184826973    0.0502054767   -0.3075249250         -0.3913
Cl219     Cl   -0.0312658927    0.0606858337   -0.3709747673         -0.3777
O220       O    0.0306314664   -0.0454451276   -0.3683600338          0.5397
H221       H    0.0293998133   -0.0412080020   -0.3052620428          0.5374
H222       H    0.0335056333   -0.0299126351   -0.3869847634          0.5535
C223       C   -0.0151855472    0.0091311906   -0.2301016404         -0.4303
C224       C    0.0029670341   -0.0030018315   -0.1961834903          0.5574
N225       N    0.0379717207   -0.0012065409   -0.2081584326          0.5603
N226       N    0.0374911010   -0.0103257965   -0.2440306841          0.5563
C227       C   -0.0042854342    0.0131160463   -0.1597851936          0.5667
H228       H    0.0607483180   -0.0053508381   -0.2529747084          0.5613
H229       H    0.0457734687    0.0229673140   -0.2081251130         -0.4207
H230       H   -0.0354870965   -0.0079499731   -0.2360957354          0.5566
H231       H   -0.0026910340   -0.0295334909   -0.1939263235          0.5363
H232       H   -0.0258532923    0.0339412275   -0.2267456367         -0.4113
H233       H    0.0211086566    0.0354977731   -0.2592252387         -0.4067
C234       C   -0.0000000000    0.0000000000   -0.1276021506          0.5537
H235       H    0.0103154156   -0.0249964791   -0.1255441003           0.534
H236       H   -0.0145895944    0.0381091037   -0.1614299799         -0.4137
C185       C   -0.0000000000    0.0000000000    0.1276021506         -0.4247
C186       C   -0.0099016521    0.0269747487    0.1463106990         -0.4061
C187       C   -0.0072774381    0.0283669400    0.1802931837         -0.4078
C188       C    0.0046239627    0.0038915248    0.2001403331         -0.4278
C189       C    0.0140188312   -0.0227564307    0.1818714030          0.5538
C190       C    0.0119509537   -0.0241760052    0.1479071311          0.5555
C191       C    0.0120012184    0.0091598074    0.2398214813         -0.4266
H192       H   -0.0142476585    0.0515674724    0.1924750750         -0.3913
Cl193     Cl   -0.0261159370    0.0630736418    0.1290252327         -0.3777
O194       O    0.0267499228   -0.0478329174    0.1316399662          0.5397
H195       H    0.0258745540   -0.0435081131    0.1947379572          0.5374
H196       H    0.0309046138   -0.0325929141    0.1130152366          0.5535
C197       C   -0.0143744154    0.0103612580    0.2698983596         -0.4303
C198       C    0.0027073801   -0.0032379587    0.3038165097          0.5574
N199       N    0.0377402026   -0.0043571122    0.2918415674          0.5603
N200       N    0.0365036042   -0.0134049098    0.2559693159          0.5563
C201       C   -0.0031809193    0.0134267408    0.3402148064          0.5667
H202       H    0.0600937419   -0.0103793925    0.2470252916          0.5613
H203       H    0.0475233751    0.0190849881    0.2918748870         -0.4207
H204       H   -0.0360249040   -0.0049741715    0.2639042646          0.5566
H205       H   -0.0051354133   -0.0292078120    0.3060736765          0.5363
H206       H   -0.0229440277    0.0359718117    0.2732543633         -0.4113
H207       H    0.0239848827    0.0336213129    0.2407747613         -0.4067
C208       C   -0.0000000000    0.0000000000    0.3723978494          0.5537
H209       H    0.0082030111   -0.0257670793    0.3744558997           0.534
H210       H   -0.0113729982    0.0391894751    0.3385700201         -0.4137
loop_
_geom_bond_atom_site_label_1
_geom_bond_atom_site_label_2
_geom_bond_distance
_geom_bond_site_symmetry_2
_ccdc_geom_bond_type
Zn1          O5 1.942       .   S
Zn1          O6 1.922       .   S
Zn1         O10 1.922       .   S
Zn1         O17 1.922       .   S
Zn2          O5 1.942       .   S
Zn2          O7 1.922       .   S
Zn2          O9 1.922       .   S
Zn2         O13 1.922       .   S
Zn3          O5 1.942       .   S
Zn3          O8 1.922       .   S
Zn3         O11 1.922       .   S
Zn3         O14 1.922       .   S
Zn4          O5 1.942       .   S
Zn4         O12 1.922       .   S
Zn4         O15 1.922       .   S
Zn4         O16 1.922       .   S
O6          C18 1.304       .   A
O7          C19 1.304       .   A
O8          C20 1.304       .   A
O9          C18 1.304       .   A
O10         C20 1.304       .   A
O11         C19 1.304       .   A
O12         C21 1.304       .   A
O13         C22 1.304       .   A
O14         C21 1.304       .   A
O15         C22 1.304       .   A
O16         C23 1.304       .   A
O17         C23 1.304       .   A
C18        C185 1.540       .   S
C19        C260 1.540       .   S
C20        C338 1.540       .   S
C21        C234 1.540       .   S
C22        C289 1.540       .   S
C23        C286 1.540       .   S
Zn24        O28 1.942       .   S
Zn24        O29 1.922       .   S
Zn24        O33 1.922       .   S
Zn24        O40 1.922       .   S
Zn25        O28 1.942       .   S
Zn25        O30 1.922       .   S
Zn25        O32 1.922       .   S
Zn25        O36 1.922       .   S
Zn26        O28 1.942       .   S
Zn26        O31 1.922       .   S
Zn26        O34 1.922       .   S
Zn26        O37 1.922       .   S
Zn27        O28 1.942       .   S
Zn27        O35 1.922       .   S
Zn27        O38 1.922       .   S
Zn27        O39 1.922       .   S
O29         C41 1.304       .   A
O30         C42 1.304       .   A
O31         C43 1.304       .   A
O32         C41 1.304       .   A
O33         C43 1.304       .   A
O34         C42 1.304       .   A
O35         C44 1.304       .   A
O36         C45 1.304       .   A
O37         C44 1.304       .   A
O38         C45 1.304       .   A
O39         C46 1.304       .   A
O40         C46 1.304       .   A
C41        C208 1.540   1_655   S
C42        C341 1.540       .   S
C43        C416 1.540       .   S
C44        C211 1.540   1_656   S
C45        C419 1.540       .   S
C46        C390 1.540       .   S
Zn47        O51 1.942       .   S
Zn47        O52 1.922       .   S
Zn47        O56 1.922       .   S
Zn47        O63 1.922       .   S
Zn48        O51 1.942       .   S
Zn48        O53 1.922       .   S
Zn48        O55 1.922       .   S
Zn48        O59 1.922       .   S
Zn49        O51 1.942       .   S
Zn49        O54 1.922       .   S
Zn49        O57 1.922       .   S
Zn49        O60 1.922       .   S
Zn50        O51 1.942       .   S
Zn50        O58 1.922       .   S
Zn50        O61 1.922       .   S
Zn50        O62 1.922       .   S
O52         C64 1.304       .   A
O53         C65 1.304       .   A
O54         C66 1.304       .   A
O55         C64 1.304       .   A
O56         C66 1.304       .   A
O57         C65 1.304       .   A
O58         C67 1.304       .   A
O59         C68 1.304       .   A
O60         C67 1.304       .   A
O61         C68 1.304       .   A
O62         C69 1.304       .   A
O63         C69 1.304       .   A
C64        C312 1.540   1_655   S
C65        C497 1.540       .   S
C66        C471 1.540       .   S
C67        C315 1.540   1_665   S
C68        C445 1.540       .   S
C69        C523 1.540       .   S
Zn70        O74 1.942       .   S
Zn70        O75 1.922       .   S
Zn70        O79 1.922       .   S
Zn70        O86 1.922       .   S
Zn71        O74 1.942       .   S
Zn71        O76 1.922       .   S
Zn71        O78 1.922       .   S
Zn71        O82 1.922       .   S
Zn72        O74 1.942       .   S
Zn72        O77 1.922       .   S
Zn72        O80 1.922       .   S
Zn72        O83 1.922       .   S
Zn73        O74 1.942       .   S
Zn73        O81 1.922       .   S
Zn73        O84 1.922       .   S
Zn73        O85 1.922       .   S
O75         C87 1.304       .   A
O76         C88 1.304       .   A
O77         C89 1.304       .   A
O78         C87 1.304       .   A
O79         C89 1.304       .   A
O80         C88 1.304       .   A
O81         C90 1.304       .   A
O82         C91 1.304       .   A
O83         C90 1.304       .   A
O84         C91 1.304       .   A
O85         C92 1.304       .   A
O86         C92 1.304       .   A
C87        C393 1.540       .   S
C88        C468 1.540       .   S
C89        C575 1.540       .   S
C90        C442 1.540   1_565   S
C91        C549 1.540       .   S
C92        C494 1.540   1_556   S
Zn93        O97 1.942       .   S
Zn93        O98 1.922       .   S
Zn93       O102 1.922       .   S
Zn93       O109 1.922       .   S
Zn94        O97 1.942       .   S
Zn94        O99 1.922       .   S
Zn94       O101 1.922       .   S
Zn94       O105 1.922       .   S
Zn95        O97 1.942       .   S
Zn95       O100 1.922       .   S
Zn95       O103 1.922       .   S
Zn95       O106 1.922       .   S
Zn96        O97 1.942       .   S
Zn96       O104 1.922       .   S
Zn96       O107 1.922       .   S
Zn96       O108 1.922       .   S
O98        C110 1.304       .   A
O99        C111 1.304       .   A
O100       C112 1.304       .   A
O101       C110 1.304       .   A
O102       C112 1.304       .   A
O103       C111 1.304       .   A
O104       C113 1.304       .   A
O105       C114 1.304       .   A
O106       C113 1.304       .   A
O107       C114 1.304       .   A
O108       C115 1.304       .   A
O109       C115 1.304       .   A
C110       C237 1.540   1_565   S
C111       C601 1.540       .   S
C112       C702 1.540       .   S
C113       C263 1.540   1_665   S
C114       C676 1.540       .   S
C115       C627 1.540       .   S
Zn116      O120 1.942       .   S
Zn116      O121 1.922       .   S
Zn116      O125 1.922       .   S
Zn116      O132 1.922       .   S
Zn117      O120 1.942       .   S
Zn117      O122 1.922       .   S
Zn117      O124 1.922       .   S
Zn117      O128 1.922       .   S
Zn118      O120 1.942       .   S
Zn118      O123 1.922       .   S
Zn118      O126 1.922       .   S
Zn118      O129 1.922       .   S
Zn119      O120 1.942       .   S
Zn119      O127 1.922       .   S
Zn119      O130 1.922       .   S
Zn119      O131 1.922       .   S
O121       C133 1.304       .   A
O122       C134 1.304       .   A
O123       C135 1.304       .   A
O124       C133 1.304       .   A
O125       C135 1.304       .   A
O126       C134 1.304       .   A
O127       C136 1.304       .   A
O128       C137 1.304       .   A
O129       C136 1.304       .   A
O130       C137 1.304       .   A
O131       C138 1.304       .   A
O132       C138 1.304       .   A
C133       C364 1.540   1_465   S
C134       C624 1.540       .   S
C135       C728 1.540       .   S
C136       C367 1.540   1_565   S
C137       C731 1.540       .   S
C138       C650 1.540   1_556   S
Zn139      O143 1.942       .   S
Zn139      O144 1.922       .   S
Zn139      O148 1.922       .   S
Zn139      O155 1.922       .   S
Zn140      O143 1.942       .   S
Zn140      O145 1.922       .   S
Zn140      O147 1.922       .   S
Zn140      O151 1.922       .   S
Zn141      O143 1.942       .   S
Zn141      O146 1.922       .   S
Zn141      O149 1.922       .   S
Zn141      O152 1.922       .   S
Zn142      O143 1.942       .   S
Zn142      O150 1.922       .   S
Zn142      O153 1.922       .   S
Zn142      O154 1.922       .   S
O144       C156 1.304       .   A
O145       C157 1.304       .   A
O146       C158 1.304       .   A
O147       C156 1.304       .   A
O148       C158 1.304       .   A
O149       C157 1.304       .   A
O150       C159 1.304       .   A
O151       C160 1.304       .   A
O152       C159 1.304       .   A
O153       C160 1.304       .   A
O154       C161 1.304       .   A
O155       C161 1.304       .   A
C156       C653 1.540   1_545   S
C157       C520 1.540   1_455   S
C158       C780 1.540       .   S
C159       C679 1.540       .   S
C160       C783 1.540       .   S
C161       C546 1.540       .   S
Zn162      O166 1.942       .   S
Zn162      O167 1.922       .   S
Zn162      O171 1.922       .   S
Zn162      O178 1.922       .   S
Zn163      O166 1.942       .   S
Zn163      O168 1.922       .   S
Zn163      O170 1.922       .   S
Zn163      O174 1.922       .   S
Zn164      O166 1.942       .   S
Zn164      O169 1.922       .   S
Zn164      O172 1.922       .   S
Zn164      O175 1.922       .   S
Zn165      O166 1.942       .   S
Zn165      O173 1.922       .   S
Zn165      O176 1.922       .   S
Zn165      O177 1.922       .   S
O167       C179 1.304       .   A
O168       C180 1.304       .   A
O169       C181 1.304       .   A
O170       C179 1.304       .   A
O171       C181 1.304       .   A
O172       C180 1.304       .   A
O173       C182 1.304       .   A
O174       C183 1.304       .   A
O175       C182 1.304       .   A
O176       C183 1.304       .   A
O177       C184 1.304       .   A
O178       C184 1.304       .   A
C179       C757 1.540       .   S
C180       C598 1.540       .   S
C181       C754 1.540       .   S
C182       C806 1.540   1_556   S
C183       C705 1.540   1_545   S
C184       C572 1.540   1_455   S
C783       C784 0.027       .   A
C783       C788 0.027       .   A
C784       C785 0.027       .   A
C784      Cl791 0.034       .   A
C785       C786 0.027       .   A
C785       H790 0.021       .   A
C786       C787 0.027       .   A
C786       C789 0.032       .   A
C787       C788 0.027       .   A
C787       H793 0.021       .   A
C788       O792 0.025       .   A
C789       C795 0.032       .   A
C789       N798 0.029       .   A
C789       H805 0.021       .   A
O792       H794 0.019       .   A
C795       C796 0.032       .   A
C795       H802 0.021       .   A
C795       H804 0.021       .   A
C796       N797 0.029       .   A
C796       C799 0.032       .   A
C796       H803 0.021       .   A
N797       N798 0.029       .   A
N797       H801 0.020       .   A
N798       H800 0.020       .   A
C799       C806 0.028       .   A
C799       H808 0.021       .   A
C806       H807 0.021       .   A
C757       C758 0.027       .   A
C757       C762 0.027       .   A
C758       C759 0.027       .   A
C758      Cl765 0.034       .   A
C759       C760 0.027       .   A
C759       H764 0.021       .   A
C760       C761 0.027       .   A
C760       C763 0.032       .   A
C761       C762 0.027       .   A
C761       H767 0.021       .   A
C762       O766 0.025       .   A
C763       C769 0.032       .   A
C763       N772 0.029       .   A
C763       H779 0.021       .   A
O766       H768 0.019       .   A
C769       C770 0.032       .   A
C769       H776 0.021       .   A
C769       H778 0.021       .   A
C770       N771 0.029       .   A
C770       C773 0.032       .   A
C770       H777 0.021       .   A
N771       N772 0.029       .   A
N771       H775 0.020       .   A
N772       H774 0.020       .   A
C773       C780 0.028       .   A
C773       H782 0.021       .   A
C780       H781 0.021       .   A
C731       C732 0.027       .   A
C731       C736 0.027       .   A
C732       C733 0.027       .   A
C732      Cl739 0.034       .   A
C733       C734 0.027       .   A
C733       H738 0.021       .   A
C734       C735 0.027       .   A
C734       C737 0.032       .   A
C735       C736 0.027       .   A
C735       H741 0.021       .   A
C736       O740 0.025       .   A
C737       C743 0.032       .   A
C737       N746 0.029       .   A
C737       H753 0.021       .   A
O740       H742 0.019       .   A
C743       C744 0.032       .   A
C743       H750 0.021       .   A
C743       H752 0.021       .   A
C744       N745 0.029       .   A
C744       C747 0.032       .   A
C744       H751 0.021       .   A
N745       N746 0.029       .   A
N745       H749 0.020       .   A
N746       H748 0.020       .   A
C747       C754 0.028       .   A
C747       H756 0.021       .   A
C754       H755 0.021       .   A
C705       C706 0.027       .   A
C705       C710 0.027       .   A
C706       C707 0.027       .   A
C706      Cl713 0.034       .   A
C707       C708 0.027       .   A
C707       H712 0.021       .   A
C708       C709 0.027       .   A
C708       C711 0.032       .   A
C709       C710 0.027       .   A
C709       H715 0.021       .   A
C710       O714 0.025       .   A
C711       C717 0.032       .   A
C711       N720 0.029       .   A
C711       H727 0.021       .   A
O714       H716 0.019       .   A
C717       C718 0.032       .   A
C717       H724 0.021       .   A
C717       H726 0.021       .   A
C718       N719 0.029       .   A
C718       C721 0.032       .   A
C718       H725 0.021       .   A
N719       N720 0.029       .   A
N719       H723 0.020       .   A
N720       H722 0.020       .   A
C721       C728 0.028       .   A
C721       H730 0.021       .   A
C728       H729 0.021       .   A
C679       C680 0.027       .   A
C679       C684 0.027       .   A
C680       C681 0.027       .   A
C680      Cl687 0.034       .   A
C681       C682 0.027       .   A
C681       H686 0.021       .   A
C682       C683 0.027       .   A
C682       C685 0.032       .   A
C683       C684 0.027       .   A
C683       H689 0.021       .   A
C684       O688 0.025       .   A
C685       C691 0.032       .   A
C685       N694 0.029       .   A
C685       H701 0.021       .   A
O688       H690 0.019       .   A
C691       C692 0.032       .   A
C691       H698 0.021       .   A
C691       H700 0.021       .   A
C692       N693 0.029       .   A
C692       C695 0.032       .   A
C692       H699 0.021       .   A
N693       N694 0.029       .   A
N693       H697 0.020       .   A
N694       H696 0.020       .   A
C695       C702 0.028       .   A
C695       H704 0.021       .   A
C702       H703 0.021       .   A
C653       C654 0.027       .   A
C653       C658 0.027       .   A
C654       C655 0.027       .   A
C654      Cl661 0.034       .   A
C655       C656 0.027       .   A
C655       H660 0.021       .   A
C656       C657 0.027       .   A
C656       C659 0.032       .   A
C657       C658 0.027       .   A
C657       H663 0.021       .   A
C658       O662 0.025       .   A
C659       C665 0.032       .   A
C659       N668 0.029       .   A
C659       H675 0.021       .   A
O662       H664 0.019       .   A
C665       C666 0.032       .   A
C665       H672 0.021       .   A
C665       H674 0.021       .   A
C666       N667 0.029       .   A
C666       C669 0.032       .   A
C666       H673 0.021       .   A
N667       N668 0.029       .   A
N667       H671 0.020       .   A
N668       H670 0.020       .   A
C669       C676 0.028       .   A
C669       H678 0.021       .   A
C676       H677 0.021       .   A
C627       C628 0.027       .   A
C627       C632 0.027       .   A
C628       C629 0.027       .   A
C628      Cl635 0.034       .   A
C629       C630 0.027       .   A
C629       H634 0.021       .   A
C630       C631 0.027       .   A
C630       C633 0.032       .   A
C631       C632 0.027       .   A
C631       H637 0.021       .   A
C632       O636 0.025       .   A
C633       C639 0.032       .   A
C633       N642 0.029       .   A
C633       H649 0.021       .   A
O636       H638 0.019       .   A
C639       C640 0.032       .   A
C639       H646 0.021       .   A
C639       H648 0.021       .   A
C640       N641 0.029       .   A
C640       C643 0.032       .   A
C640       H647 0.021       .   A
N641       N642 0.029       .   A
N641       H645 0.020       .   A
N642       H644 0.020       .   A
C643       C650 0.028       .   A
C643       H652 0.021       .   A
C650       H651 0.021       .   A
C601       C602 0.027       .   A
C601       C606 0.027       .   A
C602       C603 0.027       .   A
C602      Cl609 0.034       .   A
C603       C604 0.027       .   A
C603       H608 0.021       .   A
C604       C605 0.027       .   A
C604       C607 0.032       .   A
C605       C606 0.027       .   A
C605       H611 0.021       .   A
C606       O610 0.025       .   A
C607       C613 0.032       .   A
C607       N616 0.029       .   A
C607       H623 0.021       .   A
O610       H612 0.019       .   A
C613       C614 0.032       .   A
C613       H620 0.021       .   A
C613       H622 0.021       .   A
C614       N615 0.029       .   A
C614       C617 0.032       .   A
C614       H621 0.021       .   A
N615       N616 0.029       .   A
N615       H619 0.020       .   A
N616       H618 0.020       .   A
C617       C624 0.028       .   A
C617       H626 0.021       .   A
C624       H625 0.021       .   A
C575       C576 0.027       .   A
C575       C580 0.027       .   A
C576       C577 0.027       .   A
C576      Cl583 0.034       .   A
C577       C578 0.027       .   A
C577       H582 0.021       .   A
C578       C579 0.027       .   A
C578       C581 0.032       .   A
C579       C580 0.027       .   A
C579       H585 0.021       .   A
C580       O584 0.025       .   A
C581       C587 0.032       .   A
C581       N590 0.029       .   A
C581       H597 0.021       .   A
O584       H586 0.019       .   A
C587       C588 0.032       .   A
C587       H594 0.021       .   A
C587       H596 0.021       .   A
C588       N589 0.029       .   A
C588       C591 0.032       .   A
C588       H595 0.021       .   A
N589       N590 0.029       .   A
N589       H593 0.020       .   A
N590       H592 0.020       .   A
C591       C598 0.028       .   A
C591       H600 0.021       .   A
C598       H599 0.021       .   A
C549       C550 0.027       .   A
C549       C554 0.027       .   A
C550       C551 0.027       .   A
C550      Cl557 0.034       .   A
C551       C552 0.027       .   A
C551       H556 0.021       .   A
C552       C553 0.027       .   A
C552       C555 0.032       .   A
C553       C554 0.027       .   A
C553       H559 0.021       .   A
C554       O558 0.025       .   A
C555       C561 0.032       .   A
C555       N564 0.029       .   A
C555       H571 0.021       .   A
O558       H560 0.019       .   A
C561       C562 0.032       .   A
C561       H568 0.021       .   A
C561       H570 0.021       .   A
C562       N563 0.029       .   A
C562       C565 0.032       .   A
C562       H569 0.021       .   A
N563       N564 0.029       .   A
N563       H567 0.020       .   A
N564       H566 0.020       .   A
C565       C572 0.028       .   A
C565       H574 0.021       .   A
C572       H573 0.021       .   A
C523       C524 0.027       .   A
C523       C528 0.027       .   A
C524       C525 0.027       .   A
C524      Cl531 0.034       .   A
C525       C526 0.027       .   A
C525       H530 0.021       .   A
C526       C527 0.027       .   A
C526       C529 0.032       .   A
C527       C528 0.027       .   A
C527       H533 0.021       .   A
C528       O532 0.025       .   A
C529       C535 0.032       .   A
C529       N538 0.029       .   A
C529       H545 0.021       .   A
O532       H534 0.019       .   A
C535       C536 0.032       .   A
C535       H542 0.021       .   A
C535       H544 0.021       .   A
C536       N537 0.029       .   A
C536       C539 0.032       .   A
C536       H543 0.021       .   A
N537       N538 0.029       .   A
N537       H541 0.020       .   A
N538       H540 0.020       .   A
C539       C546 0.028       .   A
C539       H548 0.021       .   A
C546       H547 0.021       .   A
C497       C498 0.027       .   A
C497       C502 0.027       .   A
C498       C499 0.027       .   A
C498      Cl505 0.034       .   A
C499       C500 0.027       .   A
C499       H504 0.021       .   A
C500       C501 0.027       .   A
C500       C503 0.032       .   A
C501       C502 0.027       .   A
C501       H507 0.021       .   A
C502       O506 0.025       .   A
C503       C509 0.032       .   A
C503       N512 0.029       .   A
C503       H519 0.021       .   A
O506       H508 0.019       .   A
C509       C510 0.032       .   A
C509       H516 0.021       .   A
C509       H518 0.021       .   A
C510       N511 0.029       .   A
C510       C513 0.032       .   A
C510       H517 0.021       .   A
N511       N512 0.029       .   A
N511       H515 0.020       .   A
N512       H514 0.020       .   A
C513       C520 0.028       .   A
C513       H522 0.021       .   A
C520       H521 0.021       .   A
C471       C472 0.027       .   A
C471       C476 0.027       .   A
C472       C473 0.027       .   A
C472      Cl479 0.034       .   A
C473       C474 0.027       .   A
C473       H478 0.021       .   A
C474       C475 0.027       .   A
C474       C477 0.032       .   A
C475       C476 0.027       .   A
C475       H481 0.021       .   A
C476       O480 0.025       .   A
C477       C483 0.032       .   A
C477       N486 0.029       .   A
C477       H493 0.021       .   A
O480       H482 0.019       .   A
C483       C484 0.032       .   A
C483       H490 0.021       .   A
C483       H492 0.021       .   A
C484       N485 0.029       .   A
C484       C487 0.032       .   A
C484       H491 0.021       .   A
N485       N486 0.029       .   A
N485       H489 0.020       .   A
N486       H488 0.020       .   A
C487       C494 0.028       .   A
C487       H496 0.021       .   A
C494       H495 0.021       .   A
C445       C446 0.027       .   A
C445       C450 0.027       .   A
C446       C447 0.027       .   A
C446      Cl453 0.034       .   A
C447       C448 0.027       .   A
C447       H452 0.021       .   A
C448       C449 0.027       .   A
C448       C451 0.032       .   A
C449       C450 0.027       .   A
C449       H455 0.021       .   A
C450       O454 0.025       .   A
C451       C457 0.032       .   A
C451       N460 0.029       .   A
C451       H467 0.021       .   A
O454       H456 0.019       .   A
C457       C458 0.032       .   A
C457       H464 0.021       .   A
C457       H466 0.021       .   A
C458       N459 0.029       .   A
C458       C461 0.032       .   A
C458       H465 0.021       .   A
N459       N460 0.029       .   A
N459       H463 0.020       .   A
N460       H462 0.020       .   A
C461       C468 0.028       .   A
C461       H470 0.021       .   A
C468       H469 0.021       .   A
C419       C420 0.027       .   A
C419       C424 0.027       .   A
C420       C421 0.027       .   A
C420      Cl427 0.034       .   A
C421       C422 0.027       .   A
C421       H426 0.021       .   A
C422       C423 0.027       .   A
C422       C425 0.032       .   A
C423       C424 0.027       .   A
C423       H429 0.021       .   A
C424       O428 0.025       .   A
C425       C431 0.032       .   A
C425       N434 0.029       .   A
C425       H441 0.021       .   A
O428       H430 0.019       .   A
C431       C432 0.032       .   A
C431       H438 0.021       .   A
C431       H440 0.021       .   A
C432       N433 0.029       .   A
C432       C435 0.032       .   A
C432       H439 0.021       .   A
N433       N434 0.029       .   A
N433       H437 0.020       .   A
N434       H436 0.020       .   A
C435       C442 0.028       .   A
C435       H444 0.021       .   A
C442       H443 0.021       .   A
C393       C394 0.027       .   A
C393       C398 0.027       .   A
C394       C395 0.027       .   A
C394      Cl401 0.034       .   A
C395       C396 0.027       .   A
C395       H400 0.021       .   A
C396       C397 0.027       .   A
C396       C399 0.032       .   A
C397       C398 0.027       .   A
C397       H403 0.021       .   A
C398       O402 0.025       .   A
C399       C405 0.032       .   A
C399       N408 0.029       .   A
C399       H415 0.021       .   A
O402       H404 0.019       .   A
C405       C406 0.032       .   A
C405       H412 0.021       .   A
C405       H414 0.021       .   A
C406       N407 0.029       .   A
C406       C409 0.032       .   A
C406       H413 0.021       .   A
N407       N408 0.029       .   A
N407       H411 0.020       .   A
N408       H410 0.020       .   A
C409       C416 0.028       .   A
C409       H418 0.021       .   A
C416       H417 0.021       .   A
C367       C368 0.027       .   A
C367       C372 0.027       .   A
C368       C369 0.027       .   A
C368      Cl375 0.034       .   A
C369       C370 0.027       .   A
C369       H374 0.021       .   A
C370       C371 0.027       .   A
C370       C373 0.032       .   A
C371       C372 0.027       .   A
C371       H377 0.021       .   A
C372       O376 0.025       .   A
C373       C379 0.032       .   A
C373       N382 0.029       .   A
C373       H389 0.021       .   A
O376       H378 0.019       .   A
C379       C380 0.032       .   A
C379       H386 0.021       .   A
C379       H388 0.021       .   A
C380       N381 0.029       .   A
C380       C383 0.032       .   A
C380       H387 0.021       .   A
N381       N382 0.029       .   A
N381       H385 0.020       .   A
N382       H384 0.020       .   A
C383       C390 0.028       .   A
C383       H392 0.021       .   A
C390       H391 0.021       .   A
C341       C342 0.027       .   A
C341       C346 0.027       .   A
C342       C343 0.027       .   A
C342      Cl349 0.034       .   A
C343       C344 0.027       .   A
C343       H348 0.021       .   A
C344       C345 0.027       .   A
C344       C347 0.032       .   A
C345       C346 0.027       .   A
C345       H351 0.021       .   A
C346       O350 0.025       .   A
C347       C353 0.032       .   A
C347       N356 0.029       .   A
C347       H363 0.021       .   A
O350       H352 0.019       .   A
C353       C354 0.032       .   A
C353       H360 0.021       .   A
C353       H362 0.021       .   A
C354       N355 0.029       .   A
C354       C357 0.032       .   A
C354       H361 0.021       .   A
N355       N356 0.029       .   A
N355       H359 0.020       .   A
N356       H358 0.020       .   A
C357       C364 0.028       .   A
C357       H366 0.021       .   A
C364       H365 0.021       .   A
C315       C316 0.027       .   A
C315       C320 0.027       .   A
C316       C317 0.027       .   A
C316      Cl323 0.034       .   A
C317       C318 0.027       .   A
C317       H322 0.021       .   A
C318       C319 0.027       .   A
C318       C321 0.032       .   A
C319       C320 0.027       .   A
C319       H325 0.021       .   A
C320       O324 0.025       .   A
C321       C327 0.032       .   A
C321       N330 0.029       .   A
C321       H337 0.021       .   A
O324       H326 0.019       .   A
C327       C328 0.032       .   A
C327       H334 0.021       .   A
C327       H336 0.021       .   A
C328       N329 0.029       .   A
C328       C331 0.032       .   A
C328       H335 0.021       .   A
N329       N330 0.029       .   A
N329       H333 0.020       .   A
N330       H332 0.020       .   A
C331       C338 0.028       .   A
C331       H340 0.021       .   A
C338       H339 0.021       .   A
C289       C290 0.027       .   A
C289       C294 0.027       .   A
C290       C291 0.027       .   A
C290      Cl297 0.034       .   A
C291       C292 0.027       .   A
C291       H296 0.021       .   A
C292       C293 0.027       .   A
C292       C295 0.032       .   A
C293       C294 0.027       .   A
C293       H299 0.021       .   A
C294       O298 0.025       .   A
C295       C301 0.032       .   A
C295       N304 0.029       .   A
C295       H311 0.021       .   A
O298       H300 0.019       .   A
C301       C302 0.032       .   A
C301       H308 0.021       .   A
C301       H310 0.021       .   A
C302       N303 0.029       .   A
C302       C305 0.032       .   A
C302       H309 0.021       .   A
N303       N304 0.029       .   A
N303       H307 0.020       .   A
N304       H306 0.020       .   A
C305       C312 0.028       .   A
C305       H314 0.021       .   A
C312       H313 0.021       .   A
C263       C264 0.027       .   A
C263       C268 0.027       .   A
C264       C265 0.027       .   A
C264      Cl271 0.034       .   A
C265       C266 0.027       .   A
C265       H270 0.021       .   A
C266       C267 0.027       .   A
C266       C269 0.032       .   A
C267       C268 0.027       .   A
C267       H273 0.021       .   A
C268       O272 0.025       .   A
C269       C275 0.032       .   A
C269       N278 0.029       .   A
C269       H285 0.021       .   A
O272       H274 0.019       .   A
C275       C276 0.032       .   A
C275       H282 0.021       .   A
C275       H284 0.021       .   A
C276       N277 0.029       .   A
C276       C279 0.032       .   A
C276       H283 0.021       .   A
N277       N278 0.029       .   A
N277       H281 0.020       .   A
N278       H280 0.020       .   A
C279       C286 0.028       .   A
C279       H288 0.021       .   A
C286       H287 0.021       .   A
C237       C238 0.027       .   A
C237       C242 0.027       .   A
C238       C239 0.027       .   A
C238      Cl245 0.034       .   A
C239       C240 0.027       .   A
C239       H244 0.021       .   A
C240       C241 0.027       .   A
C240       C243 0.032       .   A
C241       C242 0.027       .   A
C241       H247 0.021       .   A
C242       O246 0.025       .   A
C243       C249 0.032       .   A
C243       N252 0.029       .   A
C243       H259 0.021       .   A
O246       H248 0.019       .   A
C249       C250 0.032       .   A
C249       H256 0.021       .   A
C249       H258 0.021       .   A
C250       N251 0.029       .   A
C250       C253 0.032       .   A
C250       H257 0.021       .   A
N251       N252 0.029       .   A
N251       H255 0.020       .   A
N252       H254 0.020       .   A
C253       C260 0.028       .   A
C253       H262 0.021       .   A
C260       H261 0.021       .   A
C211       C212 0.027       .   A
C211       C216 0.027       .   A
C212       C213 0.027       .   A
C212      Cl219 0.034       .   A
C213       C214 0.027       .   A
C213       H218 0.021       .   A
C214       C215 0.027       .   A
C214       C217 0.032       .   A
C215       C216 0.027       .   A
C215       H221 0.021       .   A
C216       O220 0.025       .   A
C217       C223 0.032       .   A
C217       N226 0.029       .   A
C217       H233 0.021       .   A
O220       H222 0.019       .   A
C223       C224 0.032       .   A
C223       H230 0.021       .   A
C223       H232 0.021       .   A
C224       N225 0.029       .   A
C224       C227 0.032       .   A
C224       H231 0.021       .   A
N225       N226 0.029       .   A
N225       H229 0.020       .   A
N226       H228 0.020       .   A
C227       C234 0.028       .   A
C227       H236 0.021       .   A
C234       H235 0.021       .   A
C185       C186 0.027       .   A
C185       C190 0.027       .   A
C186       C187 0.027       .   A
C186      Cl193 0.034       .   A
C187       C188 0.027       .   A
C187       H192 0.021       .   A
C188       C189 0.027       .   A
C188       C191 0.032       .   A
C189       C190 0.027       .   A
C189       H195 0.021       .   A
C190       O194 0.025       .   A
C191       C197 0.032       .   A
C191       N200 0.029       .   A
C191       H207 0.021       .   A
O194       H196 0.019       .   A
C197       C198 0.032       .   A
C197       H204 0.021       .   A
C197       H206 0.021       .   A
C198       N199 0.029       .   A
C198       C201 0.032       .   A
C198       H205 0.021       .   A
N199       N200 0.029       .   A
N199       H203 0.020       .   A
N200       H202 0.020       .   A
C201       C208 0.028       .   A
C201       H210 0.021       .   A
C208       H209 0.021       .   A
