data_pcu_v1-6c_Zn_1_Ch_1-1_fer_tobacco
_audit_creation_date              2021-02-03
_audit_creation_method            'tobacco_3.0'
_symmetry_space_group_name_H-M    'P1'
_symmetry_Int_Tables_number       1
_symmetry_cell_setting            triclinic
loop_
_symmetry_equiv_pos_as_xyz
  x,y,z
_cell_length_a                    44.89832394966902
_cell_length_b                    44.89832394966902
_cell_length_c                    44.89832394966902
_cell_angle_alpha                 90.0
_cell_angle_beta                  90.0
_cell_angle_gamma                 90.0
loop_
_atom_site_label
_atom_site_type_symbol
_atom_site_fract_x
_atom_site_fract_y
_atom_site_fract_z
_atom_site_charge
Zn1       Zn   -0.0249719789   -0.0249719789    0.0249719789          1.4972
Zn2       Zn    0.0249719789    0.0249719789    0.0249719789          1.4936
Zn3       Zn    0.0249719789   -0.0249719789   -0.0249719789          1.4911
Zn4       Zn   -0.0249719789    0.0249719789   -0.0249719789          1.4948
O5         O    0.0000000000    0.0000000000    0.0000000000         -2.2284
O6         O   -0.0183525782   -0.0183525782    0.0667419123         -1.1348
O7         O    0.0667419123    0.0183525782    0.0183525782         -1.1329
O8         O    0.0183525782   -0.0667419123   -0.0183525782         -1.1281
O9         O    0.0183525782    0.0183525782    0.0667419123         -1.1349
O10        O   -0.0183525782   -0.0667419123    0.0183525782         -1.1309
O11        O    0.0667419123   -0.0183525782   -0.0183525782         -1.1367
O12        O   -0.0183525782    0.0183525782   -0.0667419123         -1.1306
O13        O    0.0183525782    0.0667419123    0.0183525782         -1.1382
O14        O    0.0183525782   -0.0183525782   -0.0667419123         -1.1321
O15        O   -0.0183525782    0.0667419123   -0.0183525782         -1.1368
O16        O   -0.0667419123    0.0183525782   -0.0183525782         -1.1359
O17        O   -0.0667419123   -0.0183525782    0.0183525782         -1.1337
C18        C   -0.0000000000   -0.0000000000    0.0797980790          0.3841
C19        C    0.0797980790   -0.0000000000   -0.0000000000           0.389
C20        C   -0.0000000000   -0.0797980790    0.0000000000          0.3786
C21        C    0.0000000000    0.0000000000   -0.0797980790          0.3824
C22        C    0.0000000000    0.0797980790   -0.0000000000          0.3938
C23        C   -0.0797980790    0.0000000000    0.0000000000          0.3843
Zn24      Zn    0.9750280211    0.0249719789    0.4750280211          1.4972
Zn25      Zn    1.0249719789   -0.0249719789    0.4750280211          1.4936
Zn26      Zn    1.0249719789    0.0249719789    0.5249719789          1.4911
Zn27      Zn    0.9750280211   -0.0249719789    0.5249719789          1.4948
O28        O    1.0000000000    0.0000000000    0.5000000000         -2.2284
O29        O    0.9816474218    0.0183525782    0.4332580877         -1.1348
O30        O    1.0667419123   -0.0183525782    0.4816474218         -1.1329
O31        O    1.0183525782    0.0667419123    0.5183525782         -1.1281
O32        O    1.0183525782   -0.0183525782    0.4332580877         -1.1349
O33        O    0.9816474218    0.0667419123    0.4816474218         -1.1309
O34        O    1.0667419123    0.0183525782    0.5183525782         -1.1367
O35        O    0.9816474218   -0.0183525782    0.5667419123         -1.1306
O36        O    1.0183525782   -0.0667419123    0.4816474218         -1.1382
O37        O    1.0183525782    0.0183525782    0.5667419123         -1.1321
O38        O    0.9816474218   -0.0667419123    0.5183525782         -1.1368
O39        O    0.9332580877   -0.0183525782    0.5183525782         -1.1359
O40        O    0.9332580877    0.0183525782    0.4816474218         -1.1337
C41        C    1.0000000000    0.0000000000    0.4202019210          0.3841
C42        C    1.0797980790    0.0000000000    0.5000000000           0.389
C43        C    1.0000000000    0.0797980790    0.5000000000          0.3786
C44        C    1.0000000000    0.0000000000    0.5797980790          0.3824
C45        C    1.0000000000   -0.0797980790    0.5000000000          0.3938
C46        C    0.9202019210    0.0000000000    0.5000000000          0.3843
Zn47      Zn    1.0249719789    0.4750280211   -0.0249719789          1.4972
Zn48      Zn    0.9750280211    0.4750280211    0.0249719789          1.4936
Zn49      Zn    1.0249719789    0.5249719789    0.0249719789          1.4911
Zn50      Zn    0.9750280211    0.5249719789   -0.0249719789          1.4948
O51        O    1.0000000000    0.5000000000    0.0000000000         -2.2284
O52        O    1.0183525782    0.4332580877   -0.0183525782         -1.1348
O53        O    0.9816474218    0.4816474218    0.0667419123         -1.1329
O54        O    1.0667419123    0.5183525782    0.0183525782         -1.1281
O55        O    0.9816474218    0.4332580877    0.0183525782         -1.1349
O56        O    1.0667419123    0.4816474218   -0.0183525782         -1.1309
O57        O    1.0183525782    0.5183525782    0.0667419123         -1.1367
O58        O    0.9816474218    0.5667419123   -0.0183525782         -1.1306
O59        O    0.9332580877    0.4816474218    0.0183525782         -1.1382
O60        O    1.0183525782    0.5667419123    0.0183525782         -1.1321
O61        O    0.9332580877    0.5183525782   -0.0183525782         -1.1368
O62        O    0.9816474218    0.5183525782   -0.0667419123         -1.1359
O63        O    1.0183525782    0.4816474218   -0.0667419123         -1.1337
C64        C    1.0000000000    0.4202019210    0.0000000000          0.3841
C65        C    1.0000000000    0.5000000000    0.0797980790           0.389
C66        C    1.0797980790    0.5000000000    0.0000000000          0.3786
C67        C    1.0000000000    0.5797980790    0.0000000000          0.3824
C68        C    0.9202019210    0.5000000000    0.0000000000          0.3938
C69        C    1.0000000000    0.5000000000   -0.0797980790          0.3843
Zn70      Zn    0.9750280211    0.4750280211    0.5249719789          1.4972
Zn71      Zn    1.0249719789    0.4750280211    0.4750280211          1.4936
Zn72      Zn    0.9750280211    0.5249719789    0.4750280211          1.4911
Zn73      Zn    1.0249719789    0.5249719789    0.5249719789          1.4948
O74        O    1.0000000000    0.5000000000    0.5000000000         -2.2284
O75        O    0.9816474218    0.4332580877    0.5183525782         -1.1348
O76        O    1.0183525782    0.4816474218    0.4332580877         -1.1329
O77        O    0.9332580877    0.5183525782    0.4816474218         -1.1281
O78        O    1.0183525782    0.4332580877    0.4816474218         -1.1349
O79        O    0.9332580877    0.4816474218    0.5183525782         -1.1309
O80        O    0.9816474218    0.5183525782    0.4332580877         -1.1367
O81        O    1.0183525782    0.5667419123    0.5183525782         -1.1306
O82        O    1.0667419123    0.4816474218    0.4816474218         -1.1382
O83        O    0.9816474218    0.5667419123    0.4816474218         -1.1321
O84        O    1.0667419123    0.5183525782    0.5183525782         -1.1368
O85        O    1.0183525782    0.5183525782    0.5667419123         -1.1359
O86        O    0.9816474218    0.4816474218    0.5667419123         -1.1337
C87        C    1.0000000000    0.4202019210    0.5000000000          0.3841
C88        C    1.0000000000    0.5000000000    0.4202019210           0.389
C89        C    0.9202019210    0.5000000000    0.5000000000          0.3786
C90        C    1.0000000000    0.5797980790    0.5000000000          0.3824
C91        C    1.0797980790    0.5000000000    0.5000000000          0.3938
C92        C    1.0000000000    0.5000000000    0.5797980790          0.3843
Zn93      Zn    0.4750280211    0.9750280211   -0.0249719789          1.4972
Zn94      Zn    0.4750280211    1.0249719789    0.0249719789          1.4936
Zn95      Zn    0.5249719789    0.9750280211    0.0249719789          1.4911
Zn96      Zn    0.5249719789    1.0249719789   -0.0249719789          1.4948
O97        O    0.5000000000    1.0000000000    0.0000000000         -2.2284
O98        O    0.4332580877    0.9816474218   -0.0183525782         -1.1348
O99        O    0.4816474218    1.0183525782    0.0667419123         -1.1329
O100       O    0.5183525782    0.9332580877    0.0183525782         -1.1281
O101       O    0.4332580877    1.0183525782    0.0183525782         -1.1349
O102       O    0.4816474218    0.9332580877   -0.0183525782         -1.1309
O103       O    0.5183525782    0.9816474218    0.0667419123         -1.1367
O104       O    0.5667419123    1.0183525782   -0.0183525782         -1.1306
O105       O    0.4816474218    1.0667419123    0.0183525782         -1.1382
O106       O    0.5667419123    0.9816474218    0.0183525782         -1.1321
O107       O    0.5183525782    1.0667419123   -0.0183525782         -1.1368
O108       O    0.5183525782    1.0183525782   -0.0667419123         -1.1359
O109       O    0.4816474218    0.9816474218   -0.0667419123         -1.1337
C110       C    0.4202019210    1.0000000000    0.0000000000          0.3841
C111       C    0.5000000000    1.0000000000    0.0797980790           0.389
C112       C    0.5000000000    0.9202019210    0.0000000000          0.3786
C113       C    0.5797980790    1.0000000000    0.0000000000          0.3824
C114       C    0.5000000000    1.0797980790    0.0000000000          0.3938
C115       C    0.5000000000    1.0000000000   -0.0797980790          0.3843
Zn116     Zn    0.4750280211    1.0249719789    0.5249719789          1.4972
Zn117     Zn    0.4750280211    0.9750280211    0.4750280211          1.4936
Zn118     Zn    0.5249719789    1.0249719789    0.4750280211          1.4911
Zn119     Zn    0.5249719789    0.9750280211    0.5249719789          1.4948
O120       O    0.5000000000    1.0000000000    0.5000000000         -2.2284
O121       O    0.4332580877    1.0183525782    0.5183525782         -1.1348
O122       O    0.4816474218    0.9816474218    0.4332580877         -1.1329
O123       O    0.5183525782    1.0667419123    0.4816474218         -1.1281
O124       O    0.4332580877    0.9816474218    0.4816474218         -1.1349
O125       O    0.4816474218    1.0667419123    0.5183525782         -1.1309
O126       O    0.5183525782    1.0183525782    0.4332580877         -1.1367
O127       O    0.5667419123    0.9816474218    0.5183525782         -1.1306
O128       O    0.4816474218    0.9332580877    0.4816474218         -1.1382
O129       O    0.5667419123    1.0183525782    0.4816474218         -1.1321
O130       O    0.5183525782    0.9332580877    0.5183525782         -1.1368
O131       O    0.5183525782    0.9816474218    0.5667419123         -1.1359
O132       O    0.4816474218    1.0183525782    0.5667419123         -1.1337
C133       C    0.4202019210    1.0000000000    0.5000000000          0.3841
C134       C    0.5000000000    1.0000000000    0.4202019210           0.389
C135       C    0.5000000000    1.0797980790    0.5000000000          0.3786
C136       C    0.5797980790    1.0000000000    0.5000000000          0.3824
C137       C    0.5000000000    0.9202019210    0.5000000000          0.3938
C138       C    0.5000000000    1.0000000000    0.5797980790          0.3843
Zn139     Zn    0.4750280211    0.5249719789   -0.0249719789          1.4972
Zn140     Zn    0.4750280211    0.4750280211    0.0249719789          1.4936
Zn141     Zn    0.5249719789    0.4750280211   -0.0249719789          1.4911
Zn142     Zn    0.5249719789    0.5249719789    0.0249719789          1.4948
O143       O    0.5000000000    0.5000000000    0.0000000000         -2.2284
O144       O    0.4332580877    0.5183525782   -0.0183525782         -1.1348
O145       O    0.4816474218    0.4332580877    0.0183525782         -1.1329
O146       O    0.5183525782    0.4816474218   -0.0667419123         -1.1281
O147       O    0.4332580877    0.4816474218    0.0183525782         -1.1349
O148       O    0.4816474218    0.5183525782   -0.0667419123         -1.1309
O149       O    0.5183525782    0.4332580877   -0.0183525782         -1.1367
O150       O    0.5667419123    0.5183525782    0.0183525782         -1.1306
O151       O    0.4816474218    0.4816474218    0.0667419123         -1.1382
O152       O    0.5667419123    0.4816474218   -0.0183525782         -1.1321
O153       O    0.5183525782    0.5183525782    0.0667419123         -1.1368
O154       O    0.5183525782    0.5667419123    0.0183525782         -1.1359
O155       O    0.4816474218    0.5667419123   -0.0183525782         -1.1337
C156       C    0.4202019210    0.5000000000    0.0000000000          0.3841
C157       C    0.5000000000    0.4202019210    0.0000000000           0.389
C158       C    0.5000000000    0.5000000000   -0.0797980790          0.3786
C159       C    0.5797980790    0.5000000000    0.0000000000          0.3824
C160       C    0.5000000000    0.5000000000    0.0797980790          0.3938
C161       C    0.5000000000    0.5797980790    0.0000000000          0.3843
Zn162     Zn    0.5249719789    0.5249719789    0.4750280211          1.4972
Zn163     Zn    0.4750280211    0.5249719789    0.5249719789          1.4936
Zn164     Zn    0.4750280211    0.4750280211    0.4750280211          1.4911
Zn165     Zn    0.5249719789    0.4750280211    0.5249719789          1.4948
O166       O    0.5000000000    0.5000000000    0.5000000000         -2.2284
O167       O    0.5183525782    0.5667419123    0.4816474218         -1.1348
O168       O    0.4332580877    0.5183525782    0.5183525782         -1.1329
O169       O    0.4816474218    0.4816474218    0.4332580877         -1.1281
O170       O    0.4816474218    0.5667419123    0.5183525782         -1.1349
O171       O    0.5183525782    0.5183525782    0.4332580877         -1.1309
O172       O    0.4332580877    0.4816474218    0.4816474218         -1.1367
O173       O    0.5183525782    0.4332580877    0.5183525782         -1.1306
O174       O    0.4816474218    0.5183525782    0.5667419123         -1.1382
O175       O    0.4816474218    0.4332580877    0.4816474218         -1.1321
O176       O    0.5183525782    0.4816474218    0.5667419123         -1.1368
O177       O    0.5667419123    0.4816474218    0.5183525782         -1.1359
O178       O    0.5667419123    0.5183525782    0.4816474218         -1.1337
C179       C    0.5000000000    0.5797980790    0.5000000000          0.3841
C180       C    0.4202019210    0.5000000000    0.5000000000           0.389
C181       C    0.5000000000    0.5000000000    0.4202019210          0.3786
C182       C    0.5000000000    0.4202019210    0.5000000000          0.3824
C183       C    0.5000000000    0.5000000000    0.5797980790          0.3938
C184       C    0.5797980790    0.5000000000    0.5000000000          0.3843
C921       C    0.5000000000    0.5000000000   -0.1140978003         -0.3894
C922       C    0.5172126659    0.5157115773   -0.1358529505         -0.3888
C923       C    0.5180715664    0.5165288772   -0.1687076486          -0.389
C924       C    0.5012924938    0.5008756166   -0.1908285023         -0.3899
C925       C    0.4837051198    0.4850641893   -0.1694118537          0.6093
C926       C    0.4834406581    0.4846924478   -0.1365028113          0.6097
C927       C    0.5009531355    0.5047132293   -0.2351038657          0.6077
C928       C    0.5575117108    0.5556582831   -0.1658567919         -0.3886
H929       H    0.5330259803    0.5304331916   -0.1251745141          -0.388
H930       H    0.4669416416    0.4697675901   -0.1270210089          0.6089
C931       C    0.4610128834    0.4646608815   -0.1836677451          0.6079
H932       H    0.4662598202    0.4604231224   -0.2070493373         -0.3877
H933       H    0.4603489386    0.4431826298   -0.1723126750         -0.3819
H934       H    0.4388874814    0.4747241858   -0.1825942784          0.5922
H935       H    0.5442837949    0.5711341819   -0.1524559174          0.5975
H936       H    0.5709766395    0.5684373907   -0.1816183195         -0.3883
H937       H    0.5724490429    0.5428344454   -0.1514866080         -0.3749
O938       O    0.5379639739    0.5356780140   -0.1823634606         -0.3886
C939       C    0.4895879907    0.4884311550   -0.2711319849          0.6097
C940       C    0.4999008314    0.5024394551   -0.3086695602          0.6076
N941       N    0.5281976132    0.5109284914   -0.2902527736         -0.3824
N942       N    0.5270729612    0.5160382796   -0.2551748932         -0.3851
C943       C    0.4989795457    0.4906105021   -0.3512329423         -0.3875
H944       H    0.5318055538    0.5379506477   -0.2515287480          0.6066
H945       H    0.5446026986    0.4955062726   -0.2929435754         -0.3669
H946       H    0.4977131296    0.4654622038   -0.2704379781         -0.3752
H947       H    0.4871733827    0.5231758806   -0.3097312363          0.5913
H948       H    0.4653687093    0.4864865856   -0.2706492078          0.5987
H949       H    0.4859035341    0.5238362456   -0.2354134588           0.591
C950       C    0.5000000000    0.5000000000   -0.3859021997          0.6082
H951       H    0.5036509473    0.5239191736   -0.3878631035          0.5984
H952       H    0.4953650465    0.4667126225   -0.3501394463         -0.3776
C889       C    0.5000000000    0.5000000000    0.3859021997         -0.3894
C890       C    0.5028243743    0.4768666380    0.3641470495         -0.3888
C891       C    0.5029924449    0.4756929935    0.3312923514          -0.389
C892       C    0.4999642397    0.4984392419    0.3091714977         -0.3899
C893       C    0.4972757183    0.5219358121    0.3305881463          0.6093
C894       C    0.4971261153    0.5223668000    0.3634971887          0.6129
C895       C    0.5032879923    0.4964911391    0.2648961343          0.6077
C896       C    0.5120134994    0.4208727785    0.3341432081         -0.3886
H897       H    0.5056532794    0.4554473911    0.3748254859          -0.388
H898       H    0.4945290943    0.5444626007    0.3729789911          0.6089
C899       C    0.4938047976    0.5522538805    0.3163322549          0.6079
H900       H    0.4873101181    0.5504350659    0.2929506627         -0.3877
H901       H    0.4766883987    0.5652456089    0.3276873250         -0.3819
H902       H    0.5148306211    0.5644488897    0.3174057216          0.5922
H903       H    0.5322919259    0.4226801588    0.3475440826          0.5975
H904       H    0.5146209126    0.4024931350    0.3183816805         -0.3883
H905       H    0.4929051404    0.4161351295    0.3485133920         -0.3749
O906       O    0.5070644524    0.4483833602    0.3176365394         -0.3886
C907       C    0.4966090080    0.5151904340    0.2288680151          0.6097
C908       C    0.5020452461    0.4986666792    0.1913304398          0.6076
N909       N    0.4925590766    0.4706883987    0.2097472264         -0.3824
N910       N    0.4973746719    0.4686427154    0.2448251068         -0.3851
C911       C    0.4929406336    0.5062744995    0.1487670577         -0.3875
H912       H    0.5124862519    0.4520840483    0.2484712520          0.6066
H913       H    0.4704826182    0.4662610243    0.2070564246         -0.3669
H914       H    0.4731829901    0.5218846322    0.2295620219         -0.3752
H915       H    0.5263200302    0.4970167870    0.1902687637          0.5913
H916       H    0.5090641683    0.5360524550    0.2293507922          0.5987
H917       H    0.5275942385    0.4976687003    0.2645865412           0.591
C918       C    0.5000000000    0.5000000000    0.1140978003          0.6082
H919       H    0.5173738186    0.4831593733    0.1121368965          0.5984
H920       H    0.4755630375    0.5230730831    0.1498605537         -0.3776
C857       C    0.5000000000    0.8859021997    0.5000000000         -0.3894
C858       C    0.5074367562    0.8641470495    0.5220867423         -0.3888
C859       C    0.5078383204    0.8312923514    0.5232022849          -0.389
C860       C    0.5002800877    0.8091714977    0.5015358371         -0.3899
C861       C    0.4929030564    0.8305881463    0.4790659380          0.6093
C862       C    0.4926695191    0.8634971887    0.4786740298          0.6097
C863       C    0.5039287089    0.7648961343    0.5027727683          0.6077
C864       C    0.5277416121    0.8341432081    0.5750722606         -0.3886
H865       H    0.5145318760    0.8748254859    0.5424937537          -0.388
H866       H    0.4856649144    0.8729789911    0.4575575803          0.6089
C867       C    0.4833825012    0.8163322549    0.4500729803          0.6079
H868       H    0.4773887798    0.7929506627    0.4531655928         -0.3877
H869       H    0.4639955982    0.8276873250    0.4408045333         -0.3819
H870       H    0.5015132075    0.8174057216    0.4338840646          0.5922
H871       H    0.5472375384    0.8475440826    0.5692079568          0.5975
H872       H    0.5340061159    0.8183816805    0.5925469820         -0.3883
H873       H    0.5099832688    0.8485133920    0.5835702571         -0.3749
O874       O    0.5173401916    0.8176365394    0.5491274032         -0.3886
C875       C    0.4936119439    0.7288680151    0.4858070140          0.6097
C876       C    0.5022723208    0.6913304398    0.5008929355          0.6076
N877       N    0.4986302179    0.7097472264    0.5302102798         -0.3824
N878       N    0.5037596613    0.7448251068    0.5312415843         -0.3851
C879       C    0.4918192087    0.6487670577    0.4952799735         -0.3875
H880       H    0.5219031833    0.7484712520    0.5444082816          0.6066
H881       H    0.4779022544    0.7070564246    0.5390036402         -0.3669
H882       H    0.4693168060    0.7295620219    0.4839803012         -0.3752
H883       H    0.5263803185    0.6902687637    0.4976078575          0.5913
H884       H    0.5015986445    0.7293507922    0.4628599543          0.5987
H885       H    0.5274966678    0.7645865412    0.4967121110           0.591
C886       C    0.5000000000    0.6140978003    0.5000000000          0.6082
H887       H    0.5204161007    0.6121368965    0.5129861124          0.5984
H888       H    0.4714078967    0.6498605537    0.4823358010         -0.3776
C825       C    0.5000000000    1.3859021997    0.5000000000         -0.3894
C826       C    0.5066725284    1.3641470495    0.4776704928         -0.3888
C827       C    0.5069883443    1.3312923514    0.4765277113          -0.389
C828       C    0.5006575705    1.3091714977    0.4985840743         -0.3899
C829       C    0.4937151508    1.3305881463    0.5211920323          0.6093
C830       C    0.4936797109    1.3634971887    0.5216468682          0.6097
C831       C    0.4983916254    1.2648961343    0.4954683194          0.6077
C832       C    0.5206672232    1.3341432081    0.4226804860         -0.3886
H833       H    0.5126547125    1.3748254859    0.4569099457          -0.388
H834       H    0.4872141966    1.3729789911    0.5429345653          0.6089
C835       C    0.4847589297    1.3163322549    0.5503642565          0.6079
H836       H    0.4914386035    1.2929506627    0.5512974801         -0.3877
H837       H    0.4952431550    1.3276873250    0.5691215788         -0.3819
H838       H    0.4606094799    1.3174057216    0.5531224400          0.5922
H839       H    0.5013610321    1.3475440826    0.4162188929          0.5975
H840       H    0.5256355672    1.3183816805    0.4047940259         -0.3883
H841       H    0.5400742340    1.3485133920    0.4259884516         -0.3749
O842       O    0.5141894111    1.3176365394    0.4498717185         -0.3886
C843       C    0.4970264090    1.2288680151    0.5152776264          0.6097
C844       C    0.4986595388    1.1913304398    0.4979594266          0.6076
N845       N    0.5185526654    1.2097472264    0.4761182932         -0.3824
N846       N    0.5149586947    1.2448251068    0.4723159054         -0.3851
C847       C    0.5039572344    1.1487670577    0.5085757969         -0.3875
H848       H    0.5077395496    1.2484712520    0.4510924925          0.6066
H849       H    0.5405553624    1.2070564246    0.4808987725         -0.3669
H850       H    0.5158136366    1.2295620219    0.5307899016         -0.3752
H851       H    0.4770751923    1.1902687637    0.4867298553          0.5913
H852       H    0.4772613423    1.2293507922    0.5294090481          0.5987
H853       H    0.4756465654    1.2645865412    0.4868171636           0.591
C854       C    0.5000000000    1.1140978003    0.5000000000          0.6082
H855       H    0.4908206674    1.1121368965    0.4776125898          0.5984
H856       H    0.5131568592    1.1498605537    0.5309261920         -0.3776
C793       C    0.5000000000    0.8859021997    0.0000000000         -0.3894
C794       C    0.5059219225    0.8641470495   -0.0225401943         -0.3888
C795       C    0.5061993383    0.8312923514   -0.0236928997          -0.389
C796       C    0.5006098430    0.8091714977   -0.0014371277         -0.3899
C797       C    0.4944274937    0.8305881463    0.0213903889          0.6093
C798       C    0.4944072869    0.8634971887    0.0218461556          0.6097
C799       C    0.4982409508    0.7648961343   -0.0044753484          0.6077
C800       C    0.5180694935    0.8341432081   -0.0779675237         -0.3886
H801       H    0.5112063653    0.8748254859   -0.0434892159          -0.388
H802       H    0.4886574164    0.8729789911    0.0433381987          0.6089
C803       C    0.4864520299    0.8163322549    0.0508458559          0.6079
H804       H    0.4931591805    0.7929506627    0.0515551371         -0.3877
H805       H    0.4975577797    0.8276873250    0.0692420089         -0.3819
H806       H    0.4624083477    0.8174057216    0.0544102415          0.5922
H807       H    0.4985579789    0.8475440826   -0.0837797523          0.5975
H808       H    0.5224367953    0.8183816805   -0.0960101558         -0.3883
H809       H    0.5375762895    0.8485133920   -0.0753105305         -0.3749
O810       O    0.5125047922    0.8176365394   -0.0505748373         -0.3886
C811       C    0.4975390754    0.7288680151    0.0153685381          0.6097
C812       C    0.4985920362    0.6913304398   -0.0019945961          0.6076
N813       N    0.5177434946    0.7097472264   -0.0244888896         -0.3824
N814       N    0.5140243534    0.7448251068   -0.0281689395         -0.3851
C815       C    0.5042418615    0.6487670577    0.0084386378         -0.3875
H816       H    0.5060993718    0.7484712520   -0.0491390128          0.6066
H817       H    0.5398937767    0.7070564246   -0.0204470264         -0.3669
H818       H    0.5168346420    0.7295620219    0.0302437427         -0.3752
H819       H    0.4766441626    0.6902687637   -0.0124959358          0.5913
H820       H    0.4782577326    0.7293507922    0.0301531502          0.5987
H821       H    0.4752192554    0.7645865412   -0.0123608920           0.591
C822       C    0.5000000000    0.6140978003    0.0000000000          0.6082
H823       H    0.4900769945    0.6121368965   -0.0220678555          0.5984
H824       H    0.5141839098    0.6498605537    0.0304688201         -0.3776
C761       C    0.5000000000    1.1140978003    0.0000000000         -0.3894
C762       C    0.4848635103    1.1358529505    0.0177205025         -0.3888
C763       C    0.4840749250    1.1687076486    0.0186058399          -0.389
C764       C    0.4991674017    1.1908285023    0.0013206153         -0.3899
C765       C    0.5143913534    1.1694118537   -0.0167776789          0.6093
C766       C    0.5147541884    1.1365028113   -0.0170542335          0.6097
C767       C    0.4953206982    1.2351038657    0.0011077602          0.6077
C768       C    0.4462649382    1.1658567919    0.0593125997         -0.3886
H769       H    0.4706703860    1.1251745141    0.0340098260          -0.388
H770       H    0.5291278753    1.1270210089   -0.0340355777          0.6089
C771       C    0.5340366651    1.1836677451   -0.0401292161          0.6079
H772       H    0.5384448366    1.2070493373   -0.0350246130         -0.3877
H773       H    0.5554814237    1.1723126750   -0.0414997814         -0.3819
H774       H    0.5232505321    1.1825942784   -0.0619113840          0.5922
H775       H    0.4303620141    1.1524559174    0.0466012580          0.5975
H776       H    0.4339359683    1.1816183195    0.0731908705         -0.3883
H777       H    0.4595735055    1.1514866080    0.0738197269         -0.3749
O778       O    0.4655909452    1.1823634606    0.0391177829         -0.3886
C779       C    0.5112198533    1.2711319849   -0.0107871685          0.6097
C780       C    0.4975586025    1.3086695602   -0.0000188175          0.6076
N781       N    0.4900055860    1.2902527736    0.0285420567         -0.3824
N782       N    0.4848615474    1.2551748932    0.0275862084         -0.3851
C783       C    0.5093508205    1.3512329423   -0.0013289670         -0.3875
H784       H    0.4631168317    1.2515287480    0.0330375062          0.6066
H785       H    0.5059594391    1.2929435754    0.0444306133         -0.3669
H786       H    0.5344438060    1.2704379781   -0.0034224807         -0.3752
H787       H    0.4764144758    1.3097312363   -0.0120568072          0.5913
H788       H    0.5123661648    1.2706492078   -0.0350573335          0.5987
H789       H    0.4757126702    1.2354134588   -0.0133042311           0.591
C790       C    0.5000000000    1.3859021997    0.0000000000          0.6082
H791       H    0.4762139627    1.3878631035    0.0044362948          0.5984
H792       H    0.5331167751    1.3501394463   -0.0057281325         -0.3776
C729       C    0.5000000000    1.0000000000   -0.1140978003         -0.3894
C730       C    0.4767250694    1.0011862264   -0.1358529505         -0.3888
C731       C    0.4755399914    1.0012219963   -0.1687076486          -0.389
C732       C    0.4984685168    1.0003029915   -0.1908285023         -0.3899
C733       C    0.5220779639    0.9989206150   -0.1694118537          0.6093
C734       C    0.5225282277    0.9989940603   -0.1365028113          0.6097
C735       C    0.4959790786    0.9973627309   -0.2351038657          0.6077
C736       C    0.4199849060    1.0017395657   -0.1658567919         -0.3886
H737       H    0.4551380630    1.0020739179   -0.1251745141          -0.388
H738       H    0.5447419755    0.9977618540   -0.1270210089          0.6089
C739       C    0.5525420005    0.9971387514   -0.1836677451          0.6079
H740       H    0.5518643697    1.0038491735   -0.2070493373         -0.3877
H741       H    0.5682775772    1.0117725391   -0.1723126750         -0.3819
H742       H    0.5609490456    0.9743325002   -0.1825942784          0.5922
H743       H    0.4182865523    0.9814517172   -0.1524559174          0.5975
H744       H    0.4014304365    1.0023239955   -0.1816183195         -0.3883
H745       H    0.4185957004    1.0213774070   -0.1514866080         -0.3749
O746       O    0.4479366651    1.0018955621   -0.1823634606         -0.3886
C747       C    0.5155469732    1.0007346679   -0.2711319849          0.6097
C748       C    0.4983355677    0.9982138195   -0.3086695602          0.6076
N749       N    0.4723995288    1.0123592598   -0.2902527736         -0.3824
N750       N    0.4695580184    1.0079660154   -0.2551748932         -0.3851
C751       C    0.5073925680    1.0058782596   -0.3512329423         -0.3875
H752       H    0.4506523305    0.9959192619   -0.2515287480          0.6066
H753       H    0.4718252004    1.0348679649   -0.2929435754         -0.3669
H754       H    0.5261608565    1.0226649229   -0.2704379781         -0.3752
H755       H    0.4925455899    0.9745819883   -0.3097312363          0.5913
H756       H    0.5339629030    0.9848851105   -0.2706492078          0.5987
H757       H    0.4929692365    0.9732148302   -0.2354134588           0.591
C758       C    0.5000000000    1.0000000000   -0.3859021997          0.6082
H759       H    0.4804284264    0.9857729206   -0.3878631035          0.5984
H760       H    0.5269233699    1.0201162733   -0.3501394463         -0.3776
C697       C    0.5000000000    1.0000000000    0.1140978003         -0.3894
C698       C    0.5232712912    1.0012556018    0.1358529505         -0.3888
C699       C    0.5244562572    1.0012949042    0.1687076486          -0.389
C700       C    0.5015305732    1.0003075554    0.1908285023         -0.3899
C701       C    0.4779253517    0.9988548071    0.1694118537          0.6093
C702       C    0.4774748711    0.9989269099    0.1365028113          0.6097
C703       C    0.5040287651    0.9973747287    0.2351038657          0.6077
C704       C    0.5800095530    1.0019780767    0.1658567919         -0.3886
H705       H    0.5448555555    1.0022076386    0.1251745141          -0.388
H706       H    0.4552648950    0.9976284916    0.1270210089          0.6089
C707       C    0.4474667621    0.9969821405    0.1836677451          0.6079
H708       H    0.4481243867    1.0036945528    0.2070493373         -0.3877
H709       H    0.4316876331    1.0115689568    0.1723126750         -0.3819
H710       H    0.4391277380    0.9741509299    0.1825942784          0.5922
H711       H    0.5817683756    0.9816953810    0.1524559174          0.5975
H712       H    0.5985621979    1.0026178132    0.1816183195         -0.3883
H713       H    0.5813402136    1.0216199718    0.1514866080         -0.3749
O714       O    0.5520574530    1.0020507503    0.1823634606         -0.3886
C715       C    0.4844509059    1.0006883203    0.2711319849          0.6097
C716       C    0.5016697494    0.9982187890    0.3086695602          0.6076
N717       N    0.5275635066    1.0124414797    0.2902527736         -0.3824
N718       N    0.5304181003    1.0080567251    0.2551748932         -0.3851
C719       C    0.4925899422    1.0058561968    0.3512329423         -0.3875
H720       H    0.5493596147    0.9960663815    0.2515287480          0.6066
H721       H    0.5280707357    1.0349517969    0.2929435754         -0.3669
H722       H    0.4737716974    1.0225868387    0.2704379781         -0.3752
H723       H    0.5075301460    0.9746043222    0.3097312363          0.5913
H724       H    0.4660823042    0.9847839370    0.2706492078          0.5987
H725       H    0.5071105767    0.9732359074    0.2354134588           0.591
C726       C    0.5000000000    1.0000000000    0.3859021997          0.6082
H727       H    0.5196138965    0.9858313251    0.3878631035          0.5984
H728       H    0.4730167848    1.0200359275    0.3501394463         -0.3776
C665       C    0.8859021997    0.5000000000    0.5000000000         -0.3894
C666       C    0.8641470495    0.5155624104    0.4826523514         -0.3888
C667       C    0.8312923514    0.5163722657    0.4817864279          -0.389
C668       C    0.8091714977    0.5008644270    0.4986999959         -0.3899
C669       C    0.8305881463    0.4852054049    0.5164232006          0.6093
C670       C    0.8634971887    0.4848359602    0.5166908613          0.6097
C671       C    0.7648961343    0.5047048261    0.4990062149          0.6077
C672       C    0.8341432081    0.5551597622    0.4420099838         -0.3886
H673       H    0.8748254859    0.5301469740    0.4667125476          -0.388
H674       H    0.8729789911    0.4700540798    0.5333180961          0.6089
C675       C    0.8163322549    0.4649987391    0.5392907151          0.6079
H676       H    0.7929506627    0.4607158457    0.5340805546         -0.3877
H677       H    0.8276873250    0.4435270188    0.5401400377         -0.3819
H678       H    0.8174057216    0.4752526572    0.5613284252          0.5922
H679       H    0.8475440826    0.5707492692    0.4551038172          0.5975
H680       H    0.8183816805    0.5678221630    0.4284352460         -0.3883
H681       H    0.8485133920    0.5422074617    0.4271839049         -0.3749
O682       O    0.8176365394    0.5353489757    0.4617294642         -0.3886
C683       C    0.7288680151    0.4885214636    0.5105114849          0.6097
C684       C    0.6913304398    0.5024402203    0.5000781072          0.6076
N685       N    0.7097472264    0.5106846794    0.4717091015         -0.3824
N686       N    0.7448251068    0.5158039854    0.4727896033         -0.3851
C687       C    0.6487670577    0.4906196606    0.5011014674         -0.3875
H688       H    0.7484712520    0.5376746849    0.4678680372          0.6066
H689       H    0.7070564246    0.4951214248    0.4554377535         -0.3669
H690       H    0.7295620219    0.4654832311    0.5025849192         -0.3752
H691       H    0.6902687637    0.5232857378    0.5126260827          0.5913
H692       H    0.7293507922    0.4867860300    0.5347466496          0.5987
H693       H    0.7645865412    0.5239570397    0.5138901837           0.591
C694       C    0.6140978003    0.5000000000    0.5000000000          0.6082
H695       H    0.6121368965    0.5238867671    0.4961427159          0.5984
H696       H    0.6498605537    0.4667538721    0.5049221210         -0.3776
C633       C    1.1140978003    0.5000000000    0.5000000000         -0.3894
C634       C    1.1358529505    0.5171434794    0.4842129597         -0.3888
C635       C    1.1687076486    0.5179987812    0.4833918945          -0.389
C636       C    1.1908285023    0.5012886348    0.4991187140         -0.3899
C637       C    1.1694118537    0.4837708896    0.5150072495          0.6093
C638       C    1.1365028113    0.4835080635    0.5153801491          0.6097
C639       C    1.2351038657    0.5009324213    0.4952826291          0.6077
C640       C    1.1658567919    0.5572666509    0.4440896070         -0.3886
H641       H    1.1251745141    0.5328919697    0.4694220201          -0.388
H642       H    1.1270210089    0.4670747705    0.5303773424          0.6089
C643       C    1.1836677451    0.4611685031    0.5355100465          0.6079
H644       H    1.2070493373    0.4664340056    0.5397247152         -0.3877
H645       H    1.1723126750    0.4605989179    0.5569910077         -0.3819
H646       H    1.1825942784    0.4389991069    0.5255440355          0.5922
H647       H    1.1524559174    0.5439708776    0.4286719673          0.5975
H648       H    1.1816183195    0.5706753116    0.4312514718         -0.3883
H649       H    1.1514866080    0.5722601736    0.4568477017         -0.3749
O650       O    1.1823634606    0.5378068753    0.4641555559         -0.3886
C651       C    1.2711319849    0.4896389127    0.5116144730          0.6097
C652       C    1.3086695602    0.4998901159    0.4975610041          0.6076
N653       N    1.2902527736    0.5281493326    0.4889477430         -0.3824
N654       N    1.2551748932    0.5270022444    0.4838429445         -0.3851
C655       C    1.3512329423    0.4990208033    0.5093938901         -0.3875
H656       H    1.2515287480    0.5316385310    0.4619099978          0.6066
H657       H    1.2929435754    0.5446220090    0.5042977459         -0.3669
H658       H    1.2704379781    0.4978648750    0.5345475091         -0.3752
H659       H    1.3097312363    0.4870716957    0.4768806899          0.5913
H660       H    1.2706492078    0.4654284075    0.5136654181          0.5987
H661       H    1.2354134588    0.4857989583    0.4762259097           0.591
C662       C    1.3859021997    0.5000000000    0.5000000000          0.6082
H663       H    1.3878631035    0.5035458360    0.4760650187          0.5984
H664       H    1.3501394463    0.4955113215    0.5333074175         -0.3776
C601       C    0.8859021997    0.5000000000    0.0000000000         -0.3894
C602       C    0.8641470495    0.4897847161    0.0209470166         -0.3888
C603       C    0.8312923514    0.4892430313    0.0220016572          -0.389
C604       C    0.8091714977    0.4995247348    0.0014870668         -0.3899
C605       C    0.8305881463    0.5097300623   -0.0198476056          0.6093
C606       C    0.8634971887    0.5100120585   -0.0202062278          0.6097
C607       C    0.7648961343    0.4957473432    0.0022445284          0.6077
C608       C    0.8341432081    0.4628347055    0.0708814661         -0.3886
H609       H    0.8748254859    0.4801242392    0.0402721822          -0.388
H610       H    0.8729789911    0.5196740030   -0.0402465809          0.6089
C611       C    0.8163322549    0.5228999577   -0.0473755263          0.6079
H612       H    0.7929506627    0.5284462146   -0.0435378209         -0.3877
H613       H    0.8276873250    0.5433177803   -0.0540739322         -0.3819
H614       H    0.8174057216    0.5070016263   -0.0657615689          0.5922
H615       H    0.8475440826    0.4442547817    0.0625587481          0.5975
H616       H    0.8183816805    0.4543750299    0.0874055027         -0.3883
H617       H    0.8485133920    0.4793527900    0.0815925625         -0.3749
O618       O    0.8176365394    0.4764861778    0.0464896135         -0.3886
C619       C    0.7288680151    0.5081601828   -0.0132536610          0.6097
C620       C    0.6913304398    0.4976317180    0.0005933093          0.6076
N621       N    0.7097472264    0.4974734763    0.0301355934         -0.3824
N622       N    0.7448251068    0.4922540006    0.0304987071         -0.3851
C623       C    0.6487670577    0.5087198446   -0.0036288161         -0.3875
H624       H    0.7484712520    0.4725679345    0.0412228904          0.6066
H625       H    0.7070564246    0.5168985417    0.0415214836         -0.3669
H626       H    0.7295620219    0.5324885071   -0.0119409400         -0.3752
H627       H    0.6902687637    0.4741463377   -0.0057646939          0.5913
H628       H    0.7293507922    0.5031907043   -0.0370372524          0.5987
H629       H    0.7645865412    0.4731544472   -0.0067965615           0.591
C630       C    0.6140978003    0.5000000000    0.0000000000          0.6082
H631       H    0.6121368965    0.4780834469    0.0102528524          0.5984
H632       H    0.6498605537    0.5306262555   -0.0138406926         -0.3776
C569       C    1.1140978003    0.5000000000    0.0000000000         -0.3894
C570       C    1.1358529505    0.4999871354   -0.0233051360         -0.3888
C571       C    1.1687076486    0.4999618845   -0.0244904847          -0.389
C572       C    1.1908285023    0.5002237938   -0.0015450440         -0.3899
C573       C    1.1694118537    0.5000579792    0.0221042575          0.6093
C574       C    1.1365028113    0.5001544938    0.0225501461          0.6097
C575       C    1.2351038657    0.4971593432   -0.0038799055          0.6077
C576       C    1.1658567919    0.4976204006   -0.0799986179         -0.3886
H577       H    1.1251745141    0.4997629770   -0.0449092234          -0.388
H578       H    1.1270210089    0.5000668403    0.0447978705          0.6089
C579       C    1.1836677451    0.4998458825    0.0526196238          0.6079
H580       H    1.2070493373    0.5065125519    0.0515976322         -0.3877
H581       H    1.1723126750    0.5152699001    0.0675814352         -0.3819
H582       H    1.1825942784    0.4775023891    0.0621889397          0.5922
H583       H    1.1524559174    0.4772720409   -0.0806508908          0.5975
H584       H    1.1816183195    0.4972494091   -0.0985585818         -0.3883
H585       H    1.1514866080    0.5171607558   -0.0823963712         -0.3749
O586       O    1.1823634606    0.4992143378   -0.0520919066         -0.3886
C587       C    1.2711319849    0.5015336031    0.0154885821          0.6097
C588       C    1.3086695602    0.4981305485   -0.0015703269          0.6076
N589       N    1.2902527736    0.5109228168   -0.0281998118         -0.3824
N590       N    1.2551748932    0.5063891924   -0.0308115216         -0.3851
C591       C    1.3512329423    0.5062508294    0.0070803340         -0.3875
H592       H    1.2515287480    0.4933856770   -0.0490723511          0.6066
H593       H    1.2929435754    0.5333721597   -0.0299314762         -0.3669
H594       H    1.2704379781    0.5239809073    0.0249600727         -0.3752
H595       H    1.3097312363    0.4742321167   -0.0061367533          0.5913
H596       H    1.2706492078    0.4866525572    0.0346955967          0.5987
H597       H    1.2354134588    0.4728885665   -0.0056433260           0.591
C598       C    1.3859021997    0.5000000000    0.0000000000          0.6082
H599       H    1.3878631035    0.4847847859   -0.0188136531          0.5984
H600       H    1.3501394463    0.5214748655    0.0258527068         -0.3776
C537       C    1.0000000000    0.5000000000   -0.1140978003         -0.3894
C538       C    0.9767287088    0.5012556018   -0.1358529505         -0.3888
C539       C    0.9755437428    0.5012949042   -0.1687076486          -0.389
C540       C    0.9984694268    0.5003075554   -0.1908285023         -0.3899
C541       C    1.0220746483    0.4988548071   -0.1694118537          0.6093
C542       C    1.0225251289    0.4989269099   -0.1365028113          0.6097
C543       C    0.9959712349    0.4973747287   -0.2351038657          0.6077
C544       C    0.9199904470    0.5019780767   -0.1658567919         -0.3886
H545       H    0.9551444445    0.5022076386   -0.1251745141          -0.388
H546       H    1.0447351050    0.4976284916   -0.1270210089          0.6089
C547       C    1.0525332379    0.4969821405   -0.1836677451          0.6079
H548       H    1.0518756133    0.5036945528   -0.2070493373         -0.3877
H549       H    1.0683123669    0.5115689568   -0.1723126750         -0.3819
H550       H    1.0608722620    0.4741509299   -0.1825942784          0.5922
H551       H    0.9182316244    0.4816953810   -0.1524559174          0.5975
H552       H    0.9014378021    0.5026178132   -0.1816183195         -0.3883
H553       H    0.9186597864    0.5216199718   -0.1514866080         -0.3749
O554       O    0.9479425470    0.5020507503   -0.1823634606         -0.3886
C555       C    1.0155490941    0.5006883203   -0.2711319849          0.6097
C556       C    0.9983302506    0.4982187890   -0.3086695602          0.6076
N557       N    0.9724364934    0.5124414797   -0.2902527736         -0.3824
N558       N    0.9695818997    0.5080567251   -0.2551748932         -0.3851
C559       C    1.0074100578    0.5058561968   -0.3512329423         -0.3875
H560       H    0.9506403853    0.4960663815   -0.2515287480          0.6066
H561       H    0.9719292643    0.5349517969   -0.2929435754         -0.3669
H562       H    1.0262283026    0.5225868387   -0.2704379781         -0.3752
H563       H    0.9924698540    0.4746043222   -0.3097312363          0.5913
H564       H    1.0339176958    0.4847839370   -0.2706492078          0.5987
H565       H    0.9928894233    0.4732359074   -0.2354134588           0.591
C566       C    1.0000000000    0.5000000000   -0.3859021997          0.6082
H567       H    0.9803861035    0.4858313251   -0.3878631035          0.5984
H568       H    1.0269832152    0.5200359275   -0.3501394463         -0.3776
C505       C    1.0000000000    0.5000000000    0.3859021997         -0.3894
C506       C    1.0028243743    0.4768666380    0.3641470495         -0.3888
C507       C    1.0029924449    0.4756929935    0.3312923514          -0.389
C508       C    0.9999642397    0.4984392419    0.3091714977         -0.3899
C509       C    0.9972757183    0.5219358121    0.3305881463          0.6093
C510       C    0.9971261153    0.5223668000    0.3634971887          0.6097
C511       C    1.0032879923    0.4964911391    0.2648961343          0.6077
C512       C    1.0120134994    0.4208727785    0.3341432081         -0.3886
H513       H    1.0056532794    0.4554473911    0.3748254859          -0.388
H514       H    0.9945290943    0.5444626007    0.3729789911          0.6089
C515       C    0.9938047976    0.5522538805    0.3163322549          0.6079
H516       H    0.9873101181    0.5504350659    0.2929506627         -0.3877
H517       H    0.9766883987    0.5652456089    0.3276873250         -0.3819
H518       H    1.0148306211    0.5644488897    0.3174057216          0.5922
H519       H    1.0322919259    0.4226801588    0.3475440826          0.5975
H520       H    1.0146209126    0.4024931350    0.3183816805         -0.3883
H521       H    0.9929051404    0.4161351295    0.3485133920         -0.3749
O522       O    1.0070644524    0.4483833602    0.3176365394         -0.3886
C523       C    0.9966090080    0.5151904340    0.2288680151          0.6097
C524       C    1.0020452461    0.4986666792    0.1913304398          0.6076
N525       N    0.9925590766    0.4706883987    0.2097472264         -0.3824
N526       N    0.9973746719    0.4686427154    0.2448251068         -0.3851
C527       C    0.9929406336    0.5062744995    0.1487670577         -0.3875
H528       H    1.0124862519    0.4520840483    0.2484712520          0.6066
H529       H    0.9704826182    0.4662610243    0.2070564246         -0.3669
H530       H    0.9731829901    0.5218846322    0.2295620219         -0.3752
H531       H    1.0263200302    0.4970167870    0.1902687637          0.5913
H532       H    1.0090641683    0.5360524550    0.2293507922          0.5987
H533       H    1.0275942385    0.4976687003    0.2645865412           0.591
C534       C    1.0000000000    0.5000000000    0.1140978003          0.6082
H535       H    1.0173738186    0.4831593733    0.1121368965          0.5984
H536       H    0.9755630375    0.5230730831    0.1498605537         -0.3776
C473       C    1.0000000000   -0.1140978003    0.5000000000         -0.3894
C474       C    1.0232712912   -0.1358529505    0.5012556018         -0.3888
C475       C    1.0244562572   -0.1687076486    0.5012949042          -0.389
C476       C    1.0015305732   -0.1908285023    0.5003075554         -0.3899
C477       C    0.9779253517   -0.1694118537    0.4988548071          0.6093
C478       C    0.9774748711   -0.1365028113    0.4989269099          0.6097
C479       C    1.0040287651   -0.2351038657    0.4973747287          0.6077
C480       C    1.0800095530   -0.1658567919    0.5019780767         -0.3886
H481       H    1.0448555555   -0.1251745141    0.5022076386          -0.388
H482       H    0.9552648950   -0.1270210089    0.4976284916          0.6089
C483       C    0.9474667621   -0.1836677451    0.4969821405          0.6079
H484       H    0.9481243867   -0.2070493373    0.5036945528         -0.3877
H485       H    0.9316876331   -0.1723126750    0.5115689568         -0.3819
H486       H    0.9391277380   -0.1825942784    0.4741509299          0.5922
H487       H    1.0817683756   -0.1524559174    0.4816953810          0.5975
H488       H    1.0985621979   -0.1816183195    0.5026178132         -0.3883
H489       H    1.0813402136   -0.1514866080    0.5216199718         -0.3749
O490       O    1.0520574530   -0.1823634606    0.5020507503         -0.3886
C491       C    0.9844509059   -0.2711319849    0.5006883203          0.6097
C492       C    1.0016697494   -0.3086695602    0.4982187890          0.6076
N493       N    1.0275635066   -0.2902527736    0.5124414797         -0.3824
N494       N    1.0304181003   -0.2551748932    0.5080567251         -0.3851
C495       C    0.9925899422   -0.3512329423    0.5058561968         -0.3875
H496       H    1.0493596147   -0.2515287480    0.4960663815          0.6066
H497       H    1.0280707357   -0.2929435754    0.5349517969         -0.3669
H498       H    0.9737716974   -0.2704379781    0.5225868387         -0.3752
H499       H    1.0075301460   -0.3097312363    0.4746043222          0.5913
H500       H    0.9660823042   -0.2706492078    0.4847839370          0.5987
H501       H    1.0071105767   -0.2354134588    0.4732359074           0.591
C502       C    1.0000000000   -0.3859021997    0.5000000000          0.6082
H503       H    1.0196138965   -0.3878631035    0.4858313251          0.5984
H504       H    0.9730167848   -0.3501394463    0.5200359275         -0.3776
C441       C    1.0000000000    0.3859021997    0.5000000000         -0.3894
C442       C    1.0078928926    0.3641470495    0.4780721234         -0.3888
C443       C    1.0082712035    0.3312923514    0.4769484819          -0.389
C444       C    1.0007345982    0.3091714977    0.4986224623         -0.3899
C445       C    0.9925568798    0.3305881463    0.5208134938          0.6093
C446       C    0.9924964294    0.3634971887    0.5212656856          0.6097
C447       C    0.9986437949    0.2648961343    0.4953865733          0.6077
C448       C    1.0248966347    0.3341432081    0.4239368753         -0.3886
H449       H    1.0150100299    0.3748254859    0.4576727803          -0.388
H450       H    0.9848676469    0.3729789911    0.5421647430          0.6089
C451       C    0.9820066858    0.3163322549    0.5494478432          0.6079
H452       H    0.9886247829    0.2929506627    0.5507477429         -0.3877
H453       H    0.9914413278    0.3276873250    0.5687544134         -0.3819
H454       H    0.9577419375    0.3174057216    0.5508710415          0.5922
H455       H    1.0059758562    0.3475440826    0.4164212021          0.5975
H456       H    1.0308430912    0.3183816805    0.4063513827         -0.3883
H457       H    1.0440918653    0.3485133920    0.4283092688         -0.3749
O458       O    1.0169302493    0.3176365394    0.4507298198         -0.3886
C459       C    0.9961890293    0.2288680151    0.5150905472          0.6097
C460       C    0.9987740248    0.1913304398    0.4978886591          0.6076
N461       N    1.0198405139    0.2097472264    0.4771769564         -0.3824
N462       N    1.0164615410    0.2448251068    0.4731822948         -0.3851
C463       C    1.0034786383    0.1487670577    0.5087808355         -0.3875
H464       H    1.0104229158    0.2484712520    0.4515933089          0.6066
H465       H    1.0415463413    0.2070564246    0.4831626655         -0.3669
H466       H    1.0140928805    0.2295620219    0.5316145514         -0.3752
H467       H    0.9778412996    0.1902687637    0.4854867113          0.5913
H468       H    0.9756752615    0.2293507922    0.5281113101          0.5987
H469       H    0.9764100323    0.2645865412    0.4854951601           0.591
C470       C    1.0000000000    0.1140978003    0.5000000000          0.6082
H471       H    0.9920683098    0.1121368965    0.4771407661          0.5984
H472       H    1.0114326296    0.1498605537    0.5316042288         -0.3776
C409       C    0.8859021997   -0.0000000000    0.5000000000         -0.3894
C410       C    0.8641470495   -0.0171556668    0.5157737955         -0.3888
C411       C    0.8312923514   -0.0180448984    0.5165579870          -0.389
C412       C    0.8091714977   -0.0009852165    0.5012110298         -0.3899
C413       C    0.8305881463    0.0163026638    0.4850726856          0.6093
C414       C    0.8634971887    0.0166960940    0.4848417217          0.6097
C415       C    0.7648961343   -0.0047784913    0.5005376046          0.6077
C416       C    0.8341432081   -0.0604712408    0.5524277635         -0.3886
H417       H    0.8748254859   -0.0332028700    0.5302401049          -0.388
H418       H    0.8729789911    0.0330056860    0.4697100947          0.6089
C419       C    0.8163322549    0.0386109660    0.4642502886          0.6079
H420       H    0.7929506627    0.0423739879    0.4698474856         -0.3877
H421       H    0.8276873250    0.0600650690    0.4654658471         -0.3819
H422       H    0.8174057216    0.0305196784    0.4413301104          0.5922
H423       H    0.8475440826   -0.0747319583    0.5378980306          0.5975
H424       H    0.8183816805   -0.0743781457    0.5647244254         -0.3883
H425       H    0.8485133920   -0.0490018225    0.5684286118         -0.3749
O426       O    0.8176365394   -0.0388591535    0.5347008672         -0.3886
C427       C    0.7288680151    0.0124344809    0.4906388142          0.6097
C428       C    0.6913304398   -0.0024214562    0.4996880292          0.6076
N429       N    0.7097472264   -0.0133508434    0.5271347064         -0.3824
N430       N    0.7448251068   -0.0183428008    0.5255678177         -0.3851
C431       C    0.6487670577    0.0094427526    0.4998039887         -0.3875
H432       H    0.7484712520   -0.0405849145    0.5283674043          0.6066
H433       H    0.7070564246    0.0005787497    0.5448247628         -0.3669
H434       H    0.7295620219    0.0346055110    0.5007401025         -0.3752
H435       H    0.6902687637   -0.0219663103    0.4851971367          0.5913
H436       H    0.7293507922    0.0164881100    0.4666821236          0.5987
H437       H    0.7645865412   -0.0225131781    0.4838744375           0.591
C438       C    0.6140978003   -0.0000000000    0.5000000000          0.6082
H439       H    0.6121368965   -0.0241467178    0.5015467067          0.5984
H440       H    0.6498605537    0.0335650728    0.4982917297         -0.3776
C377       C    1.3859021997   -0.0000000000    0.5000000000         -0.3894
C378       C    1.3641470495   -0.0231504650    0.5026805783         -0.3888
C379       C    1.3312923514   -0.0243307894    0.5027924864          -0.389
C380       C    1.3091714977   -0.0015088277    0.5004008538         -0.3899
C381       C    1.3305881463    0.0219628470    0.4975030186          0.6093
C382       C    1.3634971887    0.0224169019    0.4975473555          0.6097
C383       C    1.2648961343   -0.0041822005    0.4976267750          0.6077
C384       C    1.3341432081   -0.0797375898    0.5068817242         -0.3886
H385       H    1.3748254859   -0.0446356984    0.5049546897          -0.388
H386       H    1.3729789911    0.0445054238    0.4948891369          0.6089
C387       C    1.3163322549    0.0522492309    0.4937657056          0.6079
H388       H    1.2929506627    0.0520045491    0.5005058153         -0.3877
H389       H    1.3276873250    0.0688933315    0.5073572484         -0.3819
H390       H    1.3174057216    0.0591722065    0.4704660079          0.5922
H391       H    1.3475440826   -0.0827371365    0.4867450928          0.5975
H392       H    1.3183816805   -0.0982160666    0.5086581794         -0.3883
H393       H    1.3485133920   -0.0798610130    0.5265682543         -0.3749
O394       O    1.3176365394   -0.0518336593    0.5052398239         -0.3886
C395       C    1.2288680151    0.0155620370    0.4997333235          0.6097
C396       C    1.1913304398   -0.0017758559    0.4983245563          0.6076
N397       N    1.2097472264   -0.0267485153    0.5141086583         -0.3824
N398       N    1.2448251068   -0.0298666727    0.5099072451         -0.3851
C399       C    1.1487670577    0.0077552952    0.5053906765         -0.3875
H400       H    1.2484712520   -0.0495079505    0.4991012507          0.6066
H401       H    1.2070564246   -0.0258741232    0.5366077049         -0.3669
H402       H    1.2295620219    0.0275642810    0.5209356050         -0.3752
H403       H    1.1902687637   -0.0090736080    0.4751139962          0.5913
H404       H    1.2293507922    0.0329205626    0.4827322492          0.5987
H405       H    1.2645865412   -0.0087387601    0.4737224235           0.591
C406       C    1.1140978003   -0.0000000000    0.5000000000          0.6082
H407       H    1.1121368965   -0.0204460015    0.4870610161          0.5984
H408       H    1.1498605537    0.0281613126    0.5183431941         -0.3776
C345       C   -0.0000000000   -0.1140978003    0.0000000000         -0.3894
C346       C    0.0035500729   -0.1358529505   -0.0230331611         -0.3888
C347       C    0.0037063296   -0.1687076486   -0.0242084368          -0.389
C348       C    0.0004573627   -0.1908285023   -0.0014926701         -0.3899
C349       C   -0.0033219036   -0.1694118537    0.0218532954          0.6093
C350       C   -0.0032946889   -0.1365028113    0.0223086974          0.6097
C351       C   -0.0022141233   -0.2351038657   -0.0042685660          0.6077
C352       C    0.0098782069   -0.1658567919   -0.0794220523         -0.3886
H353       H    0.0066312867   -0.1251745141   -0.0444175704          -0.388
H354       H   -0.0067824459   -0.1270210089    0.0442815096          0.6089
C355       C   -0.0081965615   -0.1836677451    0.0519775426          0.6079
H356       H   -0.0014520182   -0.2070493373    0.0519867350         -0.3877
H357       H    0.0047588581   -0.1723126750    0.0691214402         -0.3819
H358       H   -0.0317403317   -0.1825942784    0.0580186009          0.5922
H359       H   -0.0101312503   -0.1524559174   -0.0831774254          0.5975
H360       H    0.0123489415   -0.1816183195   -0.0978205676         -0.3883
H361       H    0.0295554318   -0.1514866080   -0.0788043779         -0.3749
O362       O    0.0071871534   -0.1823634606   -0.0515996979         -0.3886
C363       C   -0.0008522498   -0.2711319849    0.0155409711          0.6097
C364       C   -0.0016074123   -0.3086695602   -0.0018376619          0.6076
N365       N    0.0151054865   -0.2902527736   -0.0261985035         -0.3824
N366       N    0.0110244195   -0.2551748932   -0.0294725943         -0.3851
C367       C    0.0050949435   -0.3512329423    0.0079527070         -0.3875
H368       H    0.0009653896   -0.2515287480   -0.0495066959          0.6066
H369       H    0.0375556766   -0.2929435754   -0.0244778567         -0.3669
H370       H    0.0198832367   -0.2704379781    0.0283327732         -0.3752
H371       H   -0.0245268335   -0.3097312363   -0.0100038986          0.5913
H372       H   -0.0184946590   -0.2706492078    0.0322472673          0.5987
H373       H   -0.0259300239   -0.2354134588   -0.0097216674           0.591
C374       C    0.0000000000   -0.3859021997    0.0000000000          0.6082
H375       H   -0.0121602178   -0.3878631035   -0.0209185417          0.5984
H376       H    0.0172701904   -0.3501394463    0.0288318022         -0.3776
C313       C   -0.0000000000    0.3859021997    0.0000000000         -0.3894
C314       C   -0.0040975319    0.3641470495    0.0229420958         -0.3888
C315       C   -0.0042817300    0.3312923514    0.0241133175          -0.389
C316       C   -0.0004927765    0.3091714977    0.0014813561         -0.3899
C317       C    0.0038413324    0.3305881463   -0.0217679978          0.6093
C318       C    0.0038249694    0.3634971887   -0.0222239188          0.6097
C319       C    0.0021118524    0.2648961343    0.0043200784          0.6077
C320       C   -0.0117666040    0.3341432081    0.0791643126         -0.3886
H321       H   -0.0076870777    0.3748254859    0.0442470718          -0.388
H322       H    0.0078349541    0.3729789911   -0.0441074502          0.6089
C323       C    0.0094319267    0.3163322549   -0.0517676281          0.6079
H324       H    0.0026895147    0.2929506627   -0.0519374190         -0.3877
H325       H   -0.0031115889    0.3276873250   -0.0692151591         -0.3819
H326       H    0.0331128709    0.3174057216   -0.0572463492          0.5922
H327       H    0.0081477566    0.3475440826    0.0833950861          0.5975
H328       H   -0.0146747436    0.3183816805    0.0974987780         -0.3883
H329       H   -0.0314235415    0.3485133920    0.0780782593         -0.3749
O330       O   -0.0084138076    0.3176365394    0.0514139265         -0.3886
C331       C    0.0012220697    0.2288680151   -0.0155162708          0.6097
C332       C    0.0015631981    0.1913304398    0.0018754166          0.6076
N333       N   -0.0157250422    0.2097472264    0.0258313832         -0.3824
N334       N   -0.0117230950    0.2448251068    0.0292017240         -0.3851
C335       C   -0.0049041290    0.1487670577   -0.0080717728         -0.3875
H336       H   -0.0021439694    0.2484712520    0.0494696706          0.6066
H337       H   -0.0381278946    0.2070564246    0.0235766402         -0.3669
H338       H   -0.0192029389    0.2295620219   -0.0287981993         -0.3752
H339       H    0.0242816662    0.1902687637    0.0105850950          0.5913
H340       H    0.0192572869    0.2293507922   -0.0317977289          0.5987
H341       H    0.0256911792    0.2645865412    0.0103363566           0.591
C342       C    0.0000000000    0.1140978003   -0.0000000000          0.6082
H343       H    0.0116586575    0.1121368965    0.0212021694          0.5984
H344       H   -0.0165787506    0.1498605537   -0.0292348649         -0.3776
C281       C   -0.1140978003   -0.0000000000    0.0000000000         -0.3894
C282       C   -0.1358529505    0.0178685478   -0.0149614347         -0.3888
C283       C   -0.1687076486    0.0187931810   -0.0157035550          -0.389
C284       C   -0.1908285023    0.0010403047   -0.0011640493         -0.3899
C285       C   -0.1694118537   -0.0169772161    0.0141554122          0.6093
C286       C   -0.1365028113   -0.0173809316    0.0143678869          0.6097
C287       C   -0.2351038657    0.0047982779   -0.0003154785          0.6077
C288       C   -0.1658567919    0.0628369507   -0.0495677212         -0.3886
H289       H   -0.1251745141    0.0345692042   -0.0286681818          -0.388
H290       H   -0.1270210089   -0.0343745411    0.0287270708          0.6089
C291       C   -0.1836677451   -0.0402269295    0.0339211247          0.6079
H292       H   -0.2070493373   -0.0437263987    0.0281554796         -0.3877
H293       H   -0.1723126750   -0.0616016038    0.0317121844         -0.3819
H294       H   -0.1825942784   -0.0332070045    0.0571917963          0.5922
H295       H   -0.1524559174    0.0764086822   -0.0343924353          0.5975
H296       H   -0.1816183195    0.0772990177   -0.0612063858         -0.3883
H297       H   -0.1514866080    0.0521217228   -0.0660831260         -0.3749
O298       O   -0.1823634606    0.0404262219   -0.0328619015         -0.3886
C299       C   -0.2711319849   -0.0128551273    0.0087746120          0.6097
C300       C   -0.3086695602    0.0024043881    0.0004239026          0.6076
N301       N   -0.2902527736    0.0145945484   -0.0264865337         -0.3824
N302       N   -0.2551748932    0.0195084910   -0.0246898850         -0.3851
C303       C   -0.3512329423   -0.0094416859   -0.0002419992         -0.3875
H304       H   -0.2515287480    0.0418564851   -0.0264552371          0.6066
H305       H   -0.2929435754    0.0015001091   -0.0448033925         -0.3669
H306       H   -0.2704379781   -0.0345339835   -0.0023437419         -0.3752
H307       H   -0.3097312363    0.0212563747    0.0158053815          0.5913
H308       H   -0.2706492078   -0.0180151152    0.0325175997          0.5987
H309       H   -0.2354134588    0.0217413294    0.0171520131           0.591
C310       C   -0.3859021997   -0.0000000000    0.0000000000          0.6082
H311       H   -0.3878631035    0.0241924620   -0.0004255152          0.5984
H312       H   -0.3501394463   -0.0336081794    0.0001502364         -0.3776
C249       C    0.1140978003   -0.0000000000    0.0000000000         -0.3894
C250       C    0.1358529505   -0.0212550636    0.0095578136         -0.3888
C251       C    0.1687076486   -0.0223260662    0.0100663828          -0.389
C252       C    0.1908285023   -0.0015011499    0.0004287115         -0.3899
C253       C    0.1694118537    0.0201410712   -0.0091070749          0.6093
C254       C    0.1365028113    0.0205083037   -0.0093777628          0.6097
C255       C    0.2351038657   -0.0023759120    0.0041806745          0.6077
C256       C    0.1658567919   -0.0720047899    0.0349392557         -0.3886
H257       H    0.1251745141   -0.0408717807    0.0186116111          -0.388
H258       H    0.1270210089    0.0408399069   -0.0184107487          0.6089
C259       C    0.1836677451    0.0480658832   -0.0214130668          0.6079
H260       H    0.2070493373    0.0444028097   -0.0270761790         -0.3877
H261       H    0.1723126750    0.0553970664   -0.0416123210         -0.3819
H262       H    0.1825942784    0.0659477599   -0.0049497139          0.5922
H263       H    0.1524559174   -0.0642648872    0.0537694206          0.5975
H264       H    0.1816183195   -0.0887843316    0.0428800917         -0.3883
H265       H    0.1514866080   -0.0821961394    0.0180955300         -0.3749
O266       O    0.1823634606   -0.0471995225    0.0220542301         -0.3886
C267       C    0.2711319849    0.0135014239   -0.0077433627          0.6097
C268       C    0.3086695602   -0.0006667948    0.0023486508          0.6076
N269       N    0.2902527736   -0.0301996714    0.0015865548         -0.3824
N270       N    0.2551748932   -0.0307251989    0.0067921862         -0.3851
C271       C    0.3512329423    0.0038986838   -0.0086025730         -0.3875
H272       H    0.2515287480   -0.0420574112    0.0261346337          0.6066
H273       H    0.2929435754   -0.0409749330   -0.0181837613         -0.3669
H274       H    0.2704379781    0.0129471826   -0.0321007726         -0.3752
H275       H    0.3097312363    0.0049565383    0.0260206894          0.5913
H276       H    0.2706492078    0.0371186708   -0.0020354220          0.5987
H277       H    0.2354134588    0.0059570072    0.0270442419           0.591
C278       C    0.3859021997   -0.0000000000    0.0000000000          0.6082
H279       H    0.3878631035   -0.0109305912    0.0215865342          0.5984
H280       H    0.3501394463    0.0147880030   -0.0301802463         -0.3776
C217       C    0.0000000000    0.0000000000   -0.1140978003         -0.3894
C218       C   -0.0232700009    0.0012792918   -0.1358529505         -0.3888
C219       C   -0.0244549263    0.0013198005   -0.1687076486          -0.389
C220       C   -0.0015302593    0.0003091134   -0.1908285023         -0.3899
C221       C    0.0220734710   -0.0011676648   -0.1694118537          0.6093
C222       C    0.0225240248   -0.0010960206   -0.1365028113          0.6097
C223       C   -0.0040314356   -0.0026211686   -0.2351038657          0.6077
C224       C   -0.0800074978    0.0020595270   -0.1658567919         -0.3886
H225       H   -0.0448532848    0.0022533013   -0.1251745141          -0.388
H226       H    0.0447326675   -0.0024170484   -0.1270210089          0.6089
C227       C    0.0525301384   -0.0030713378   -0.1836677451          0.6079
H228       H    0.0518793476    0.0036417404   -0.2070493373         -0.3877
H229       H    0.0683241089    0.0114994074   -0.1723126750         -0.3819
H230       H    0.0608459156   -0.0259110259   -0.1825942784          0.5922
H231       H   -0.0817869677   -0.0182213676   -0.1524559174          0.5975
H232       H   -0.0985594818    0.0027181502   -0.1816183195         -0.3883
H233       H   -0.0813181619    0.0217027666   -0.1514866080         -0.3749
O234       O   -0.0520553384    0.0021037449   -0.1823634606         -0.3886
C235       C    0.0155497868    0.0006724907   -0.2711319849          0.6097
C236       C   -0.0016715618   -0.0017795103   -0.3086695602          0.6076
N237       N   -0.0275508266    0.0124695335   -0.2902527736         -0.3824
N238       N   -0.0304098826    0.0080876872   -0.2551748932         -0.3851
C239       C    0.0074160156    0.0058486502   -0.3512329423         -0.3875
H240       H   -0.0493635936   -0.0038833673   -0.2515287480          0.6066
H241       H   -0.0280351395    0.0349803553   -0.2929435754         -0.3669
H242       H    0.0262512829    0.0225601261   -0.2704379781         -0.3752
H243       H   -0.0075559955   -0.0253879988   -0.3097312363          0.5913
H244       H    0.0339021879   -0.0152505841   -0.2706492078          0.5987
H245       H   -0.0071378194   -0.0267568401   -0.2354134588           0.591
C246       C   -0.0000000000    0.0000000000   -0.3859021997          0.6082
H247       H   -0.0196283103   -0.0141487002   -0.3878631035          0.5984
H248       H    0.0270035983    0.0200084477   -0.3501394463         -0.3776
C185       C   -0.0000000000    0.0000000000    0.3859021997         -0.3894
C186       C   -0.0017771312    0.0232372832    0.3641470495         -0.3888
C187       C   -0.0018920460    0.0244173188    0.3312923514          -0.389
C188       C    0.0001061848    0.0015575524    0.3091714977         -0.3899
C189       C    0.0017312045   -0.0220364356    0.3305881463          0.6093
C190       C    0.0018611979   -0.0224737380    0.3634971887          0.6097
C191       C   -0.0031262312    0.0036537209    0.2648961343          0.6077
C192       C   -0.0084290258    0.0795888992    0.3341432081         -0.3886
H193       H   -0.0036361730    0.0447624035    0.3748254859          -0.388
H194       H    0.0034580487   -0.0446642538    0.3729789911          0.6089
C195       C    0.0038298669   -0.0524802885    0.3163322549          0.6079
H196       H    0.0104000356   -0.0509565328    0.2929506627         -0.3877
H197       H    0.0203422986   -0.0662314964    0.3276873250         -0.3819
H198       H   -0.0177250670   -0.0637136462    0.3174057216          0.5922
H199       H   -0.0287683718    0.0786988380    0.3475440826          0.5975
H200       H   -0.0102040254    0.0980675159    0.3183816805         -0.3883
H201       H    0.0108737336    0.0834590645    0.3485133920         -0.3749
O202       O   -0.0047269991    0.0518829401    0.3176365394         -0.3886
C203       C    0.0027017574   -0.0153280338    0.2288680151          0.6097
C204       C   -0.0019829676    0.0014242947    0.1913304398          0.6076
N205       N    0.0087566190    0.0289457931    0.2097472264         -0.3824
N206       N    0.0040382865    0.0312067923    0.2448251068         -0.3851
C207       C    0.0067689045   -0.0065867996    0.1487670577         -0.3875
H208       H   -0.0103103395    0.0484307940    0.2484712520          0.6066
H209       H    0.0310104442    0.0323720043    0.2070564246         -0.3669
H210       H    0.0258016790   -0.0230729822    0.2295620219         -0.3752
H211       H   -0.0261585169    0.0041683980    0.1902687637          0.5913
H212       H   -0.0106825269   -0.0356064921    0.2293507922          0.5987
H213       H   -0.0274608569    0.0035746739    0.2645865412           0.591
C214       C    0.0000000000    0.0000000000    0.1140978003          0.6082
H215       H   -0.0165958291    0.0176078034    0.1121368965          0.5984
H216       H    0.0233704052   -0.0241527733    0.1498605537         -0.3776
loop_
_geom_bond_atom_site_label_1
_geom_bond_atom_site_label_2
_geom_bond_distance
_geom_bond_site_symmetry_2
_ccdc_geom_bond_type
Zn1          O5 1.942       .   S
Zn1          O6 1.922       .   S
Zn1         O10 1.922       .   S
Zn1         O17 1.922       .   S
Zn2          O5 1.942       .   S
Zn2          O7 1.922       .   S
Zn2          O9 1.922       .   S
Zn2         O13 1.922       .   S
Zn3          O5 1.942       .   S
Zn3          O8 1.922       .   S
Zn3         O11 1.922       .   S
Zn3         O14 1.922       .   S
Zn4          O5 1.942       .   S
Zn4         O12 1.922       .   S
Zn4         O15 1.922       .   S
Zn4         O16 1.922       .   S
O6          C18 1.304       .   A
O7          C19 1.304       .   A
O8          C20 1.304       .   A
O9          C18 1.304       .   A
O10         C20 1.304       .   A
O11         C19 1.304       .   A
O12         C21 1.304       .   A
O13         C22 1.304       .   A
O14         C21 1.304       .   A
O15         C22 1.304       .   A
O16         C23 1.304       .   A
O17         C23 1.304       .   A
C18        C214 1.540       .   S
C19        C249 1.540       .   S
C20        C345 1.540       .   S
C21        C217 1.540       .   S
C22        C342 1.540       .   S
C23        C281 1.540       .   S
Zn24        O28 1.942       .   S
Zn24        O29 1.922       .   S
Zn24        O33 1.922       .   S
Zn24        O40 1.922       .   S
Zn25        O28 1.942       .   S
Zn25        O30 1.922       .   S
Zn25        O32 1.922       .   S
Zn25        O36 1.922       .   S
Zn26        O28 1.942       .   S
Zn26        O31 1.922       .   S
Zn26        O34 1.922       .   S
Zn26        O37 1.922       .   S
Zn27        O28 1.942       .   S
Zn27        O35 1.922       .   S
Zn27        O38 1.922       .   S
Zn27        O39 1.922       .   S
O29         C41 1.304       .   A
O30         C42 1.304       .   A
O31         C43 1.304       .   A
O32         C41 1.304       .   A
O33         C43 1.304       .   A
O34         C42 1.304       .   A
O35         C44 1.304       .   A
O36         C45 1.304       .   A
O37         C44 1.304       .   A
O38         C45 1.304       .   A
O39         C46 1.304       .   A
O40         C46 1.304       .   A
C41        C185 1.540   1_655   S
C42        C406 1.540       .   S
C43        C470 1.540       .   S
C44        C246 1.540   1_656   S
C45        C473 1.540       .   S
C46        C409 1.540       .   S
Zn47        O51 1.942       .   S
Zn47        O52 1.922       .   S
Zn47        O56 1.922       .   S
Zn47        O63 1.922       .   S
Zn48        O51 1.942       .   S
Zn48        O53 1.922       .   S
Zn48        O55 1.922       .   S
Zn48        O59 1.922       .   S
Zn49        O51 1.942       .   S
Zn49        O54 1.922       .   S
Zn49        O57 1.922       .   S
Zn49        O60 1.922       .   S
Zn50        O51 1.942       .   S
Zn50        O58 1.922       .   S
Zn50        O61 1.922       .   S
Zn50        O62 1.922       .   S
O52         C64 1.304       .   A
O53         C65 1.304       .   A
O54         C66 1.304       .   A
O55         C64 1.304       .   A
O56         C66 1.304       .   A
O57         C65 1.304       .   A
O58         C67 1.304       .   A
O59         C68 1.304       .   A
O60         C67 1.304       .   A
O61         C68 1.304       .   A
O62         C69 1.304       .   A
O63         C69 1.304       .   A
C64        C313 1.540   1_655   S
C65        C534 1.540       .   S
C66        C569 1.540       .   S
C67        C374 1.540   1_665   S
C68        C601 1.540       .   S
C69        C537 1.540       .   S
Zn70        O74 1.942       .   S
Zn70        O75 1.922       .   S
Zn70        O79 1.922       .   S
Zn70        O86 1.922       .   S
Zn71        O74 1.942       .   S
Zn71        O76 1.922       .   S
Zn71        O78 1.922       .   S
Zn71        O82 1.922       .   S
Zn72        O74 1.942       .   S
Zn72        O77 1.922       .   S
Zn72        O80 1.922       .   S
Zn72        O83 1.922       .   S
Zn73        O74 1.942       .   S
Zn73        O81 1.922       .   S
Zn73        O84 1.922       .   S
Zn73        O85 1.922       .   S
O75         C87 1.304       .   A
O76         C88 1.304       .   A
O77         C89 1.304       .   A
O78         C87 1.304       .   A
O79         C89 1.304       .   A
O80         C88 1.304       .   A
O81         C90 1.304       .   A
O82         C91 1.304       .   A
O83         C90 1.304       .   A
O84         C91 1.304       .   A
O85         C92 1.304       .   A
O86         C92 1.304       .   A
C87        C441 1.540       .   S
C88        C505 1.540       .   S
C89        C665 1.540       .   S
C90        C502 1.540   1_565   S
C91        C633 1.540       .   S
C92        C566 1.540   1_556   S
Zn93        O97 1.942       .   S
Zn93        O98 1.922       .   S
Zn93       O102 1.922       .   S
Zn93       O109 1.922       .   S
Zn94        O97 1.942       .   S
Zn94        O99 1.922       .   S
Zn94       O101 1.922       .   S
Zn94       O105 1.922       .   S
Zn95        O97 1.942       .   S
Zn95       O100 1.922       .   S
Zn95       O103 1.922       .   S
Zn95       O106 1.922       .   S
Zn96        O97 1.942       .   S
Zn96       O104 1.922       .   S
Zn96       O107 1.922       .   S
Zn96       O108 1.922       .   S
O98        C110 1.304       .   A
O99        C111 1.304       .   A
O100       C112 1.304       .   A
O101       C110 1.304       .   A
O102       C112 1.304       .   A
O103       C111 1.304       .   A
O104       C113 1.304       .   A
O105       C114 1.304       .   A
O106       C113 1.304       .   A
O107       C114 1.304       .   A
O108       C115 1.304       .   A
O109       C115 1.304       .   A
C110       C278 1.540   1_565   S
C111       C697 1.540       .   S
C112       C793 1.540       .   S
C113       C310 1.540   1_665   S
C114       C761 1.540       .   S
C115       C729 1.540       .   S
Zn116      O120 1.942       .   S
Zn116      O121 1.922       .   S
Zn116      O125 1.922       .   S
Zn116      O132 1.922       .   S
Zn117      O120 1.942       .   S
Zn117      O122 1.922       .   S
Zn117      O124 1.922       .   S
Zn117      O128 1.922       .   S
Zn118      O120 1.942       .   S
Zn118      O123 1.922       .   S
Zn118      O126 1.922       .   S
Zn118      O129 1.922       .   S
Zn119      O120 1.942       .   S
Zn119      O127 1.922       .   S
Zn119      O130 1.922       .   S
Zn119      O131 1.922       .   S
O121       C133 1.304       .   A
O122       C134 1.304       .   A
O123       C135 1.304       .   A
O124       C133 1.304       .   A
O125       C135 1.304       .   A
O126       C134 1.304       .   A
O127       C136 1.304       .   A
O128       C137 1.304       .   A
O129       C136 1.304       .   A
O130       C137 1.304       .   A
O131       C138 1.304       .   A
O132       C138 1.304       .   A
C133       C377 1.540   1_465   S
C134       C726 1.540       .   S
C135       C854 1.540       .   S
C136       C438 1.540   1_565   S
C137       C857 1.540       .   S
C138       C758 1.540   1_556   S
Zn139      O143 1.942       .   S
Zn139      O144 1.922       .   S
Zn139      O148 1.922       .   S
Zn139      O155 1.922       .   S
Zn140      O143 1.942       .   S
Zn140      O145 1.922       .   S
Zn140      O147 1.922       .   S
Zn140      O151 1.922       .   S
Zn141      O143 1.942       .   S
Zn141      O146 1.922       .   S
Zn141      O149 1.922       .   S
Zn141      O152 1.922       .   S
Zn142      O143 1.942       .   S
Zn142      O150 1.922       .   S
Zn142      O153 1.922       .   S
Zn142      O154 1.922       .   S
O144       C156 1.304       .   A
O145       C157 1.304       .   A
O146       C158 1.304       .   A
O147       C156 1.304       .   A
O148       C158 1.304       .   A
O149       C157 1.304       .   A
O150       C159 1.304       .   A
O151       C160 1.304       .   A
O152       C159 1.304       .   A
O153       C160 1.304       .   A
O154       C161 1.304       .   A
O155       C161 1.304       .   A
C156       C598 1.540   1_455   S
C157       C790 1.540   1_545   S
C158       C921 1.540       .   S
C159       C630 1.540       .   S
C160       C918 1.540       .   S
C161       C822 1.540       .   S
Zn162      O166 1.942       .   S
Zn162      O167 1.922       .   S
Zn162      O171 1.922       .   S
Zn162      O178 1.922       .   S
Zn163      O166 1.942       .   S
Zn163      O168 1.922       .   S
Zn163      O170 1.922       .   S
Zn163      O174 1.922       .   S
Zn164      O166 1.942       .   S
Zn164      O169 1.922       .   S
Zn164      O172 1.922       .   S
Zn164      O175 1.922       .   S
Zn165      O166 1.942       .   S
Zn165      O173 1.922       .   S
Zn165      O176 1.922       .   S
Zn165      O177 1.922       .   S
O167       C179 1.304       .   A
O168       C180 1.304       .   A
O169       C181 1.304       .   A
O170       C179 1.304       .   A
O171       C181 1.304       .   A
O172       C180 1.304       .   A
O173       C182 1.304       .   A
O174       C183 1.304       .   A
O175       C182 1.304       .   A
O176       C183 1.304       .   A
O177       C184 1.304       .   A
O178       C184 1.304       .   A
C179       C886 1.540       .   S
C180       C662 1.540   1_455   S
C181       C889 1.540       .   S
C182       C825 1.540   1_545   S
C183       C950 1.540   1_556   S
C184       C694 1.540       .   S
C921       C922 0.022       .   A
C921       C926 0.022       .   A
C922       C923 0.023       .   A
C922       H929 0.017       .   A
C923       C924 0.022       .   A
C923       O938 0.021       .   A
C924       C925 0.022       .   A
C924       C927 0.031       .   A
C925       C926 0.023       .   A
C925       C931 0.023       .   A
C926       H930 0.017       .   A
C927       C939 0.028       .   A
C927       N942 0.024       .   A
C927       H949 0.017       .   A
C928       H935 0.017       .   A
C928       H936 0.017       .   A
C928       H937 0.017       .   A
C928       O938 0.022       .   A
C931       H932 0.017       .   A
C931       H933 0.017       .   A
C931       H934 0.017       .   A
C939       C940 0.029       .   A
C939       H946 0.017       .   A
C939       H948 0.017       .   A
C940       N941 0.024       .   A
C940       C943 0.031       .   A
C940       H947 0.017       .   A
N941       N942 0.025       .   A
N941       H945 0.016       .   A
N942       H944 0.016       .   A
C943       C950 0.025       .   A
C943       H952 0.017       .   A
C950       H951 0.017       .   A
C889       C890 0.022       .   A
C889       C894 0.022       .   A
C890       C891 0.023       .   A
C890       H897 0.017       .   A
C891       C892 0.022       .   A
C891       O906 0.021       .   A
C892       C893 0.022       .   A
C892       C895 0.031       .   A
C893       C894 0.023       .   A
C893       C899 0.023       .   A
C894       H898 0.017       .   A
C895       C907 0.028       .   A
C895       N910 0.024       .   A
C895       H917 0.017       .   A
C896       H903 0.017       .   A
C896       H904 0.017       .   A
C896       H905 0.017       .   A
C896       O906 0.022       .   A
C899       H900 0.017       .   A
C899       H901 0.017       .   A
C899       H902 0.017       .   A
C907       C908 0.029       .   A
C907       H914 0.017       .   A
C907       H916 0.017       .   A
C908       N909 0.024       .   A
C908       C911 0.031       .   A
C908       H915 0.017       .   A
N909       N910 0.025       .   A
N909       H913 0.016       .   A
N910       H912 0.016       .   A
C911       C918 0.025       .   A
C911       H920 0.017       .   A
C918       H919 0.017       .   A
C857       C858 0.022       .   A
C857       C862 0.022       .   A
C858       C859 0.023       .   A
C858       H865 0.017       .   A
C859       C860 0.022       .   A
C859       O874 0.021       .   A
C860       C861 0.022       .   A
C860       C863 0.031       .   A
C861       C862 0.023       .   A
C861       C867 0.023       .   A
C862       H866 0.017       .   A
C863       C875 0.028       .   A
C863       N878 0.024       .   A
C863       H885 0.017       .   A
C864       H871 0.017       .   A
C864       H872 0.017       .   A
C864       H873 0.017       .   A
C864       O874 0.022       .   A
C867       H868 0.017       .   A
C867       H869 0.017       .   A
C867       H870 0.017       .   A
C875       C876 0.029       .   A
C875       H882 0.017       .   A
C875       H884 0.017       .   A
C876       N877 0.024       .   A
C876       C879 0.031       .   A
C876       H883 0.017       .   A
N877       N878 0.025       .   A
N877       H881 0.016       .   A
N878       H880 0.016       .   A
C879       C886 0.025       .   A
C879       H888 0.017       .   A
C886       H887 0.017       .   A
C825       C826 0.022       .   A
C825       C830 0.022       .   A
C826       C827 0.023       .   A
C826       H833 0.017       .   A
C827       C828 0.022       .   A
C827       O842 0.021       .   A
C828       C829 0.022       .   A
C828       C831 0.031       .   A
C829       C830 0.023       .   A
C829       C835 0.023       .   A
C830       H834 0.017       .   A
C831       C843 0.028       .   A
C831       N846 0.024       .   A
C831       H853 0.017       .   A
C832       H839 0.017       .   A
C832       H840 0.017       .   A
C832       H841 0.017       .   A
C832       O842 0.022       .   A
C835       H836 0.017       .   A
C835       H837 0.017       .   A
C835       H838 0.017       .   A
C843       C844 0.029       .   A
C843       H850 0.017       .   A
C843       H852 0.017       .   A
C844       N845 0.024       .   A
C844       C847 0.031       .   A
C844       H851 0.017       .   A
N845       N846 0.025       .   A
N845       H849 0.016       .   A
N846       H848 0.016       .   A
C847       C854 0.025       .   A
C847       H856 0.017       .   A
C854       H855 0.017       .   A
C793       C794 0.022       .   A
C793       C798 0.022       .   A
C794       C795 0.023       .   A
C794       H801 0.017       .   A
C795       C796 0.022       .   A
C795       O810 0.021       .   A
C796       C797 0.022       .   A
C796       C799 0.031       .   A
C797       C798 0.023       .   A
C797       C803 0.023       .   A
C798       H802 0.017       .   A
C799       C811 0.028       .   A
C799       N814 0.024       .   A
C799       H821 0.017       .   A
C800       H807 0.017       .   A
C800       H808 0.017       .   A
C800       H809 0.017       .   A
C800       O810 0.022       .   A
C803       H804 0.017       .   A
C803       H805 0.017       .   A
C803       H806 0.017       .   A
C811       C812 0.029       .   A
C811       H818 0.017       .   A
C811       H820 0.017       .   A
C812       N813 0.024       .   A
C812       C815 0.031       .   A
C812       H819 0.017       .   A
N813       N814 0.025       .   A
N813       H817 0.016       .   A
N814       H816 0.016       .   A
C815       C822 0.025       .   A
C815       H824 0.017       .   A
C822       H823 0.017       .   A
C761       C762 0.022       .   A
C761       C766 0.022       .   A
C762       C763 0.023       .   A
C762       H769 0.017       .   A
C763       C764 0.022       .   A
C763       O778 0.021       .   A
C764       C765 0.022       .   A
C764       C767 0.031       .   A
C765       C766 0.023       .   A
C765       C771 0.023       .   A
C766       H770 0.017       .   A
C767       C779 0.028       .   A
C767       N782 0.024       .   A
C767       H789 0.017       .   A
C768       H775 0.017       .   A
C768       H776 0.017       .   A
C768       H777 0.017       .   A
C768       O778 0.022       .   A
C771       H772 0.017       .   A
C771       H773 0.017       .   A
C771       H774 0.017       .   A
C779       C780 0.029       .   A
C779       H786 0.017       .   A
C779       H788 0.017       .   A
C780       N781 0.024       .   A
C780       C783 0.031       .   A
C780       H787 0.017       .   A
N781       N782 0.025       .   A
N781       H785 0.016       .   A
N782       H784 0.016       .   A
C783       C790 0.025       .   A
C783       H792 0.017       .   A
C790       H791 0.017       .   A
C729       C730 0.022       .   A
C729       C734 0.022       .   A
C730       C731 0.023       .   A
C730       H737 0.017       .   A
C731       C732 0.022       .   A
C731       O746 0.021       .   A
C732       C733 0.022       .   A
C732       C735 0.031       .   A
C733       C734 0.023       .   A
C733       C739 0.023       .   A
C734       H738 0.017       .   A
C735       C747 0.028       .   A
C735       N750 0.024       .   A
C735       H757 0.017       .   A
C736       H743 0.017       .   A
C736       H744 0.017       .   A
C736       H745 0.017       .   A
C736       O746 0.022       .   A
C739       H740 0.017       .   A
C739       H741 0.017       .   A
C739       H742 0.017       .   A
C747       C748 0.029       .   A
C747       H754 0.017       .   A
C747       H756 0.017       .   A
C748       N749 0.024       .   A
C748       C751 0.031       .   A
C748       H755 0.017       .   A
N749       N750 0.025       .   A
N749       H753 0.016       .   A
N750       H752 0.016       .   A
C751       C758 0.025       .   A
C751       H760 0.017       .   A
C758       H759 0.017       .   A
C697       C698 0.022       .   A
C697       C702 0.022       .   A
C698       C699 0.023       .   A
C698       H705 0.017       .   A
C699       C700 0.022       .   A
C699       O714 0.021       .   A
C700       C701 0.022       .   A
C700       C703 0.031       .   A
C701       C702 0.023       .   A
C701       C707 0.023       .   A
C702       H706 0.017       .   A
C703       C715 0.028       .   A
C703       N718 0.024       .   A
C703       H725 0.017       .   A
C704       H711 0.017       .   A
C704       H712 0.017       .   A
C704       H713 0.017       .   A
C704       O714 0.022       .   A
C707       H708 0.017       .   A
C707       H709 0.017       .   A
C707       H710 0.017       .   A
C715       C716 0.029       .   A
C715       H722 0.017       .   A
C715       H724 0.017       .   A
C716       N717 0.024       .   A
C716       C719 0.031       .   A
C716       H723 0.017       .   A
N717       N718 0.025       .   A
N717       H721 0.016       .   A
N718       H720 0.016       .   A
C719       C726 0.025       .   A
C719       H728 0.017       .   A
C726       H727 0.017       .   A
C665       C666 0.022       .   A
C665       C670 0.022       .   A
C666       C667 0.023       .   A
C666       H673 0.017       .   A
C667       C668 0.022       .   A
C667       O682 0.021       .   A
C668       C669 0.022       .   A
C668       C671 0.031       .   A
C669       C670 0.023       .   A
C669       C675 0.023       .   A
C670       H674 0.017       .   A
C671       C683 0.028       .   A
C671       N686 0.024       .   A
C671       H693 0.017       .   A
C672       H679 0.017       .   A
C672       H680 0.017       .   A
C672       H681 0.017       .   A
C672       O682 0.022       .   A
C675       H676 0.017       .   A
C675       H677 0.017       .   A
C675       H678 0.017       .   A
C683       C684 0.029       .   A
C683       H690 0.017       .   A
C683       H692 0.017       .   A
C684       N685 0.024       .   A
C684       C687 0.031       .   A
C684       H691 0.017       .   A
N685       N686 0.025       .   A
N685       H689 0.016       .   A
N686       H688 0.016       .   A
C687       C694 0.025       .   A
C687       H696 0.017       .   A
C694       H695 0.017       .   A
C633       C634 0.022       .   A
C633       C638 0.022       .   A
C634       C635 0.023       .   A
C634       H641 0.017       .   A
C635       C636 0.022       .   A
C635       O650 0.021       .   A
C636       C637 0.022       .   A
C636       C639 0.031       .   A
C637       C638 0.023       .   A
C637       C643 0.023       .   A
C638       H642 0.017       .   A
C639       C651 0.028       .   A
C639       N654 0.024       .   A
C639       H661 0.017       .   A
C640       H647 0.017       .   A
C640       H648 0.017       .   A
C640       H649 0.017       .   A
C640       O650 0.022       .   A
C643       H644 0.017       .   A
C643       H645 0.017       .   A
C643       H646 0.017       .   A
C651       C652 0.029       .   A
C651       H658 0.017       .   A
C651       H660 0.017       .   A
C652       N653 0.024       .   A
C652       C655 0.031       .   A
C652       H659 0.017       .   A
N653       N654 0.025       .   A
N653       H657 0.016       .   A
N654       H656 0.016       .   A
C655       C662 0.025       .   A
C655       H664 0.017       .   A
C662       H663 0.017       .   A
C601       C602 0.022       .   A
C601       C606 0.022       .   A
C602       C603 0.023       .   A
C602       H609 0.017       .   A
C603       C604 0.022       .   A
C603       O618 0.021       .   A
C604       C605 0.022       .   A
C604       C607 0.031       .   A
C605       C606 0.023       .   A
C605       C611 0.023       .   A
C606       H610 0.017       .   A
C607       C619 0.028       .   A
C607       N622 0.024       .   A
C607       H629 0.017       .   A
C608       H615 0.017       .   A
C608       H616 0.017       .   A
C608       H617 0.017       .   A
C608       O618 0.022       .   A
C611       H612 0.017       .   A
C611       H613 0.017       .   A
C611       H614 0.017       .   A
C619       C620 0.029       .   A
C619       H626 0.017       .   A
C619       H628 0.017       .   A
C620       N621 0.024       .   A
C620       C623 0.031       .   A
C620       H627 0.017       .   A
N621       N622 0.025       .   A
N621       H625 0.016       .   A
N622       H624 0.016       .   A
C623       C630 0.025       .   A
C623       H632 0.017       .   A
C630       H631 0.017       .   A
C569       C570 0.022       .   A
C569       C574 0.022       .   A
C570       C571 0.023       .   A
C570       H577 0.017       .   A
C571       C572 0.022       .   A
C571       O586 0.021       .   A
C572       C573 0.022       .   A
C572       C575 0.031       .   A
C573       C574 0.023       .   A
C573       C579 0.023       .   A
C574       H578 0.017       .   A
C575       C587 0.028       .   A
C575       N590 0.024       .   A
C575       H597 0.017       .   A
C576       H583 0.017       .   A
C576       H584 0.017       .   A
C576       H585 0.017       .   A
C576       O586 0.022       .   A
C579       H580 0.017       .   A
C579       H581 0.017       .   A
C579       H582 0.017       .   A
C587       C588 0.029       .   A
C587       H594 0.017       .   A
C587       H596 0.017       .   A
C588       N589 0.024       .   A
C588       C591 0.031       .   A
C588       H595 0.017       .   A
N589       N590 0.025       .   A
N589       H593 0.016       .   A
N590       H592 0.016       .   A
C591       C598 0.025       .   A
C591       H600 0.017       .   A
C598       H599 0.017       .   A
C537       C538 0.022       .   A
C537       C542 0.022       .   A
C538       C539 0.023       .   A
C538       H545 0.017       .   A
C539       C540 0.022       .   A
C539       O554 0.021       .   A
C540       C541 0.022       .   A
C540       C543 0.031       .   A
C541       C542 0.023       .   A
C541       C547 0.023       .   A
C542       H546 0.017       .   A
C543       C555 0.028       .   A
C543       N558 0.024       .   A
C543       H565 0.017       .   A
C544       H551 0.017       .   A
C544       H552 0.017       .   A
C544       H553 0.017       .   A
C544       O554 0.022       .   A
C547       H548 0.017       .   A
C547       H549 0.017       .   A
C547       H550 0.017       .   A
C555       C556 0.029       .   A
C555       H562 0.017       .   A
C555       H564 0.017       .   A
C556       N557 0.024       .   A
C556       C559 0.031       .   A
C556       H563 0.017       .   A
N557       N558 0.025       .   A
N557       H561 0.016       .   A
N558       H560 0.016       .   A
C559       C566 0.025       .   A
C559       H568 0.017       .   A
C566       H567 0.017       .   A
C505       C506 0.022       .   A
C505       C510 0.022       .   A
C506       C507 0.023       .   A
C506       H513 0.017       .   A
C507       C508 0.022       .   A
C507       O522 0.021       .   A
C508       C509 0.022       .   A
C508       C511 0.031       .   A
C509       C510 0.023       .   A
C509       C515 0.023       .   A
C510       H514 0.017       .   A
C511       C523 0.028       .   A
C511       N526 0.024       .   A
C511       H533 0.017       .   A
C512       H519 0.017       .   A
C512       H520 0.017       .   A
C512       H521 0.017       .   A
C512       O522 0.022       .   A
C515       H516 0.017       .   A
C515       H517 0.017       .   A
C515       H518 0.017       .   A
C523       C524 0.029       .   A
C523       H530 0.017       .   A
C523       H532 0.017       .   A
C524       N525 0.024       .   A
C524       C527 0.031       .   A
C524       H531 0.017       .   A
N525       N526 0.025       .   A
N525       H529 0.016       .   A
N526       H528 0.016       .   A
C527       C534 0.025       .   A
C527       H536 0.017       .   A
C534       H535 0.017       .   A
C473       C474 0.022       .   A
C473       C478 0.022       .   A
C474       C475 0.023       .   A
C474       H481 0.017       .   A
C475       C476 0.022       .   A
C475       O490 0.021       .   A
C476       C477 0.022       .   A
C476       C479 0.031       .   A
C477       C478 0.023       .   A
C477       C483 0.023       .   A
C478       H482 0.017       .   A
C479       C491 0.028       .   A
C479       N494 0.024       .   A
C479       H501 0.017       .   A
C480       H487 0.017       .   A
C480       H488 0.017       .   A
C480       H489 0.017       .   A
C480       O490 0.022       .   A
C483       H484 0.017       .   A
C483       H485 0.017       .   A
C483       H486 0.017       .   A
C491       C492 0.029       .   A
C491       H498 0.017       .   A
C491       H500 0.017       .   A
C492       N493 0.024       .   A
C492       C495 0.031       .   A
C492       H499 0.017       .   A
N493       N494 0.025       .   A
N493       H497 0.016       .   A
N494       H496 0.016       .   A
C495       C502 0.025       .   A
C495       H504 0.017       .   A
C502       H503 0.017       .   A
C441       C442 0.022       .   A
C441       C446 0.022       .   A
C442       C443 0.023       .   A
C442       H449 0.017       .   A
C443       C444 0.022       .   A
C443       O458 0.021       .   A
C444       C445 0.022       .   A
C444       C447 0.031       .   A
C445       C446 0.023       .   A
C445       C451 0.023       .   A
C446       H450 0.017       .   A
C447       C459 0.028       .   A
C447       N462 0.024       .   A
C447       H469 0.017       .   A
C448       H455 0.017       .   A
C448       H456 0.017       .   A
C448       H457 0.017       .   A
C448       O458 0.022       .   A
C451       H452 0.017       .   A
C451       H453 0.017       .   A
C451       H454 0.017       .   A
C459       C460 0.029       .   A
C459       H466 0.017       .   A
C459       H468 0.017       .   A
C460       N461 0.024       .   A
C460       C463 0.031       .   A
C460       H467 0.017       .   A
N461       N462 0.025       .   A
N461       H465 0.016       .   A
N462       H464 0.016       .   A
C463       C470 0.025       .   A
C463       H472 0.017       .   A
C470       H471 0.017       .   A
C409       C410 0.022       .   A
C409       C414 0.022       .   A
C410       C411 0.023       .   A
C410       H417 0.017       .   A
C411       C412 0.022       .   A
C411       O426 0.021       .   A
C412       C413 0.022       .   A
C412       C415 0.031       .   A
C413       C414 0.023       .   A
C413       C419 0.023       .   A
C414       H418 0.017       .   A
C415       C427 0.028       .   A
C415       N430 0.024       .   A
C415       H437 0.017       .   A
C416       H423 0.017       .   A
C416       H424 0.017       .   A
C416       H425 0.017       .   A
C416       O426 0.022       .   A
C419       H420 0.017       .   A
C419       H421 0.017       .   A
C419       H422 0.017       .   A
C427       C428 0.029       .   A
C427       H434 0.017       .   A
C427       H436 0.017       .   A
C428       N429 0.024       .   A
C428       C431 0.031       .   A
C428       H435 0.017       .   A
N429       N430 0.025       .   A
N429       H433 0.016       .   A
N430       H432 0.016       .   A
C431       C438 0.025       .   A
C431       H440 0.017       .   A
C438       H439 0.017       .   A
C377       C378 0.022       .   A
C377       C382 0.022       .   A
C378       C379 0.023       .   A
C378       H385 0.017       .   A
C379       C380 0.022       .   A
C379       O394 0.021       .   A
C380       C381 0.022       .   A
C380       C383 0.031       .   A
C381       C382 0.023       .   A
C381       C387 0.023       .   A
C382       H386 0.017       .   A
C383       C395 0.028       .   A
C383       N398 0.024       .   A
C383       H405 0.017       .   A
C384       H391 0.017       .   A
C384       H392 0.017       .   A
C384       H393 0.017       .   A
C384       O394 0.022       .   A
C387       H388 0.017       .   A
C387       H389 0.017       .   A
C387       H390 0.017       .   A
C395       C396 0.029       .   A
C395       H402 0.017       .   A
C395       H404 0.017       .   A
C396       N397 0.024       .   A
C396       C399 0.031       .   A
C396       H403 0.017       .   A
N397       N398 0.025       .   A
N397       H401 0.016       .   A
N398       H400 0.016       .   A
C399       C406 0.025       .   A
C399       H408 0.017       .   A
C406       H407 0.017       .   A
C345       C346 0.022       .   A
C345       C350 0.022       .   A
C346       C347 0.023       .   A
C346       H353 0.017       .   A
C347       C348 0.022       .   A
C347       O362 0.021       .   A
C348       C349 0.022       .   A
C348       C351 0.031       .   A
C349       C350 0.023       .   A
C349       C355 0.023       .   A
C350       H354 0.017       .   A
C351       C363 0.028       .   A
C351       N366 0.024       .   A
C351       H373 0.017       .   A
C352       H359 0.017       .   A
C352       H360 0.017       .   A
C352       H361 0.017       .   A
C352       O362 0.022       .   A
C355       H356 0.017       .   A
C355       H357 0.017       .   A
C355       H358 0.017       .   A
C363       C364 0.029       .   A
C363       H370 0.017       .   A
C363       H372 0.017       .   A
C364       N365 0.024       .   A
C364       C367 0.031       .   A
C364       H371 0.017       .   A
N365       N366 0.025       .   A
N365       H369 0.016       .   A
N366       H368 0.016       .   A
C367       C374 0.025       .   A
C367       H376 0.017       .   A
C374       H375 0.017       .   A
C313       C314 0.022       .   A
C313       C318 0.022       .   A
C314       C315 0.023       .   A
C314       H321 0.017       .   A
C315       C316 0.022       .   A
C315       O330 0.021       .   A
C316       C317 0.022       .   A
C316       C319 0.031       .   A
C317       C318 0.023       .   A
C317       C323 0.023       .   A
C318       H322 0.017       .   A
C319       C331 0.028       .   A
C319       N334 0.024       .   A
C319       H341 0.017       .   A
C320       H327 0.017       .   A
C320       H328 0.017       .   A
C320       H329 0.017       .   A
C320       O330 0.022       .   A
C323       H324 0.017       .   A
C323       H325 0.017       .   A
C323       H326 0.017       .   A
C331       C332 0.029       .   A
C331       H338 0.017       .   A
C331       H340 0.017       .   A
C332       N333 0.024       .   A
C332       C335 0.031       .   A
C332       H339 0.017       .   A
N333       N334 0.025       .   A
N333       H337 0.016       .   A
N334       H336 0.016       .   A
C335       C342 0.025       .   A
C335       H344 0.017       .   A
C342       H343 0.017       .   A
C281       C282 0.022       .   A
C281       C286 0.022       .   A
C282       C283 0.023       .   A
C282       H289 0.017       .   A
C283       C284 0.022       .   A
C283       O298 0.021       .   A
C284       C285 0.022       .   A
C284       C287 0.031       .   A
C285       C286 0.023       .   A
C285       C291 0.023       .   A
C286       H290 0.017       .   A
C287       C299 0.028       .   A
C287       N302 0.024       .   A
C287       H309 0.017       .   A
C288       H295 0.017       .   A
C288       H296 0.017       .   A
C288       H297 0.017       .   A
C288       O298 0.022       .   A
C291       H292 0.017       .   A
C291       H293 0.017       .   A
C291       H294 0.017       .   A
C299       C300 0.029       .   A
C299       H306 0.017       .   A
C299       H308 0.017       .   A
C300       N301 0.024       .   A
C300       C303 0.031       .   A
C300       H307 0.017       .   A
N301       N302 0.025       .   A
N301       H305 0.016       .   A
N302       H304 0.016       .   A
C303       C310 0.025       .   A
C303       H312 0.017       .   A
C310       H311 0.017       .   A
C249       C250 0.022       .   A
C249       C254 0.022       .   A
C250       C251 0.023       .   A
C250       H257 0.017       .   A
C251       C252 0.022       .   A
C251       O266 0.021       .   A
C252       C253 0.022       .   A
C252       C255 0.031       .   A
C253       C254 0.023       .   A
C253       C259 0.023       .   A
C254       H258 0.017       .   A
C255       C267 0.028       .   A
C255       N270 0.024       .   A
C255       H277 0.017       .   A
C256       H263 0.017       .   A
C256       H264 0.017       .   A
C256       H265 0.017       .   A
C256       O266 0.022       .   A
C259       H260 0.017       .   A
C259       H261 0.017       .   A
C259       H262 0.017       .   A
C267       C268 0.029       .   A
C267       H274 0.017       .   A
C267       H276 0.017       .   A
C268       N269 0.024       .   A
C268       C271 0.031       .   A
C268       H275 0.017       .   A
N269       N270 0.025       .   A
N269       H273 0.016       .   A
N270       H272 0.016       .   A
C271       C278 0.025       .   A
C271       H280 0.017       .   A
C278       H279 0.017       .   A
C217       C218 0.022       .   A
C217       C222 0.022       .   A
C218       C219 0.023       .   A
C218       H225 0.017       .   A
C219       C220 0.022       .   A
C219       O234 0.021       .   A
C220       C221 0.022       .   A
C220       C223 0.031       .   A
C221       C222 0.023       .   A
C221       C227 0.023       .   A
C222       H226 0.017       .   A
C223       C235 0.028       .   A
C223       N238 0.024       .   A
C223       H245 0.017       .   A
C224       H231 0.017       .   A
C224       H232 0.017       .   A
C224       H233 0.017       .   A
C224       O234 0.022       .   A
C227       H228 0.017       .   A
C227       H229 0.017       .   A
C227       H230 0.017       .   A
C235       C236 0.029       .   A
C235       H242 0.017       .   A
C235       H244 0.017       .   A
C236       N237 0.024       .   A
C236       C239 0.031       .   A
C236       H243 0.017       .   A
N237       N238 0.025       .   A
N237       H241 0.016       .   A
N238       H240 0.016       .   A
C239       C246 0.025       .   A
C239       H248 0.017       .   A
C246       H247 0.017       .   A
C185       C186 0.022       .   A
C185       C190 0.022       .   A
C186       C187 0.023       .   A
C186       H193 0.017       .   A
C187       C188 0.022       .   A
C187       O202 0.021       .   A
C188       C189 0.022       .   A
C188       C191 0.031       .   A
C189       C190 0.023       .   A
C189       C195 0.023       .   A
C190       H194 0.017       .   A
C191       C203 0.028       .   A
C191       N206 0.024       .   A
C191       H213 0.017       .   A
C192       H199 0.017       .   A
C192       H200 0.017       .   A
C192       H201 0.017       .   A
C192       O202 0.022       .   A
C195       H196 0.017       .   A
C195       H197 0.017       .   A
C195       H198 0.017       .   A
C203       C204 0.029       .   A
C203       H210 0.017       .   A
C203       H212 0.017       .   A
C204       N205 0.024       .   A
C204       C207 0.031       .   A
C204       H211 0.017       .   A
N205       N206 0.025       .   A
N205       H209 0.016       .   A
N206       H208 0.016       .   A
C207       C214 0.025       .   A
C207       H216 0.017       .   A
C214       H215 0.017       .   A
