data_pcu_v1-6c_Zn_1_Ch_1-14_fer_tobacco
_audit_creation_date              2021-02-03
_audit_creation_method            'tobacco_3.0'
_symmetry_space_group_name_H-M    'P1'
_symmetry_Int_Tables_number       1
_symmetry_cell_setting            triclinic
loop_
_symmetry_equiv_pos_as_xyz
  x,y,z
_cell_length_a                    42.68297331604573
_cell_length_b                    42.68297331604573
_cell_length_c                    42.68297331604573
_cell_angle_alpha                 90.0
_cell_angle_beta                  90.0
_cell_angle_gamma                 90.0
loop_
_atom_site_label
_atom_site_type_symbol
_atom_site_fract_x
_atom_site_fract_y
_atom_site_fract_z
_atom_site_charge
Zn1       Zn   -0.0262680857   -0.0262680857    0.0262680857          1.4972
Zn2       Zn    0.0262680857    0.0262680857    0.0262680857          1.4936
Zn3       Zn    0.0262680857   -0.0262680857   -0.0262680857          1.4911
Zn4       Zn   -0.0262680857    0.0262680857   -0.0262680857          1.4948
O5         O    0.0000000000    0.0000000000    0.0000000000         -2.3627
O6         O   -0.0193051218   -0.0193051218    0.0702059807          -1.269
O7         O    0.0702059807    0.0193051218    0.0193051218         -1.2672
O8         O    0.0193051218   -0.0702059807   -0.0193051218         -1.2624
O9         O    0.0193051218    0.0193051218    0.0702059807         -1.2692
O10        O   -0.0193051218   -0.0702059807    0.0193051218         -1.2652
O11        O    0.0702059807   -0.0193051218   -0.0193051218          -1.271
O12        O   -0.0193051218    0.0193051218   -0.0702059807         -1.2649
O13        O    0.0193051218    0.0702059807    0.0193051218         -1.2725
O14        O    0.0193051218   -0.0193051218   -0.0702059807         -1.2664
O15        O   -0.0193051218    0.0702059807   -0.0193051218          -1.271
O16        O   -0.0702059807    0.0193051218   -0.0193051218         -1.2701
O17        O   -0.0702059807   -0.0193051218    0.0193051218          -1.268
C18        C   -0.0000000000   -0.0000000000    0.0839397943          0.2499
C19        C    0.0839397943   -0.0000000000   -0.0000000000          0.2548
C20        C   -0.0000000000   -0.0839397943    0.0000000000          0.2444
C21        C    0.0000000000    0.0000000000   -0.0839397943          0.2481
C22        C    0.0000000000    0.0839397943   -0.0000000000          0.2595
C23        C   -0.0839397943    0.0000000000    0.0000000000            0.25
Zn24      Zn    0.9737319143    0.0262680857    0.4737319143          1.4972
Zn25      Zn    1.0262680857   -0.0262680857    0.4737319143          1.4936
Zn26      Zn    1.0262680857    0.0262680857    0.5262680857          1.4911
Zn27      Zn    0.9737319143   -0.0262680857    0.5262680857          1.4948
O28        O    1.0000000000    0.0000000000    0.5000000000         -2.3627
O29        O    0.9806948782    0.0193051218    0.4297940193          -1.269
O30        O    1.0702059807   -0.0193051218    0.4806948782         -1.2672
O31        O    1.0193051218    0.0702059807    0.5193051218         -1.2624
O32        O    1.0193051218   -0.0193051218    0.4297940193         -1.2692
O33        O    0.9806948782    0.0702059807    0.4806948782         -1.2652
O34        O    1.0702059807    0.0193051218    0.5193051218          -1.271
O35        O    0.9806948782   -0.0193051218    0.5702059807         -1.2649
O36        O    1.0193051218   -0.0702059807    0.4806948782         -1.2725
O37        O    1.0193051218    0.0193051218    0.5702059807         -1.2664
O38        O    0.9806948782   -0.0702059807    0.5193051218          -1.271
O39        O    0.9297940193   -0.0193051218    0.5193051218         -1.2701
O40        O    0.9297940193    0.0193051218    0.4806948782          -1.268
C41        C    1.0000000000    0.0000000000    0.4160602057          0.2499
C42        C    1.0839397943    0.0000000000    0.5000000000          0.2548
C43        C    1.0000000000    0.0839397943    0.5000000000          0.2444
C44        C    1.0000000000    0.0000000000    0.5839397943          0.2481
C45        C    1.0000000000   -0.0839397943    0.5000000000          0.2595
C46        C    0.9160602057    0.0000000000    0.5000000000            0.25
Zn47      Zn    1.0262680857    0.4737319143    0.0262680857          1.4972
Zn48      Zn    0.9737319143    0.4737319143   -0.0262680857          1.4936
Zn49      Zn    0.9737319143    0.5262680857    0.0262680857          1.4911
Zn50      Zn    1.0262680857    0.5262680857   -0.0262680857          1.4948
O51        O    1.0000000000    0.5000000000    0.0000000000         -2.3627
O52        O    1.0193051218    0.4297940193    0.0193051218          -1.269
O53        O    0.9297940193    0.4806948782   -0.0193051218         -1.2672
O54        O    0.9806948782    0.5193051218    0.0702059807         -1.2624
O55        O    0.9806948782    0.4297940193   -0.0193051218         -1.2692
O56        O    1.0193051218    0.4806948782    0.0702059807         -1.2652
O57        O    0.9297940193    0.5193051218    0.0193051218          -1.271
O58        O    1.0193051218    0.5702059807   -0.0193051218         -1.2649
O59        O    0.9806948782    0.4806948782   -0.0702059807         -1.2725
O60        O    0.9806948782    0.5702059807    0.0193051218         -1.2664
O61        O    1.0193051218    0.5193051218   -0.0702059807          -1.271
O62        O    1.0702059807    0.5193051218   -0.0193051218         -1.2701
O63        O    1.0702059807    0.4806948782    0.0193051218          -1.268
C64        C    1.0000000000    0.4160602057    0.0000000000          0.2499
C65        C    0.9160602057    0.5000000000    0.0000000000          0.2548
C66        C    1.0000000000    0.5000000000    0.0839397943          0.2444
C67        C    1.0000000000    0.5839397943    0.0000000000          0.2481
C68        C    1.0000000000    0.5000000000   -0.0839397943          0.2595
C69        C    1.0839397943    0.5000000000    0.0000000000            0.25
Zn70      Zn    0.9737319143    0.5262680857    0.4737319143          1.4972
Zn71      Zn    1.0262680857    0.4737319143    0.4737319143          1.4936
Zn72      Zn    1.0262680857    0.5262680857    0.5262680857          1.4911
Zn73      Zn    0.9737319143    0.4737319143    0.5262680857          1.4948
O74        O    1.0000000000    0.5000000000    0.5000000000         -2.3627
O75        O    0.9806948782    0.5193051218    0.4297940193          -1.269
O76        O    1.0702059807    0.4806948782    0.4806948782         -1.2672
O77        O    1.0193051218    0.5702059807    0.5193051218         -1.2624
O78        O    1.0193051218    0.4806948782    0.4297940193         -1.2692
O79        O    0.9806948782    0.5702059807    0.4806948782         -1.2652
O80        O    1.0702059807    0.5193051218    0.5193051218          -1.271
O81        O    0.9806948782    0.4806948782    0.5702059807         -1.2649
O82        O    1.0193051218    0.4297940193    0.4806948782         -1.2725
O83        O    1.0193051218    0.5193051218    0.5702059807         -1.2664
O84        O    0.9806948782    0.4297940193    0.5193051218          -1.271
O85        O    0.9297940193    0.4806948782    0.5193051218         -1.2701
O86        O    0.9297940193    0.5193051218    0.4806948782          -1.268
C87        C    1.0000000000    0.5000000000    0.4160602057          0.2499
C88        C    1.0839397943    0.5000000000    0.5000000000          0.2548
C89        C    1.0000000000    0.5839397943    0.5000000000          0.2444
C90        C    1.0000000000    0.5000000000    0.5839397943          0.2481
C91        C    1.0000000000    0.4160602057    0.5000000000          0.2595
C92        C    0.9160602057    0.5000000000    0.5000000000            0.25
Zn93      Zn    0.4737319143    0.9737319143   -0.0262680857          1.4972
Zn94      Zn    0.4737319143    1.0262680857    0.0262680857          1.4936
Zn95      Zn    0.5262680857    0.9737319143    0.0262680857          1.4911
Zn96      Zn    0.5262680857    1.0262680857   -0.0262680857          1.4948
O97        O    0.5000000000    1.0000000000    0.0000000000         -2.3627
O98        O    0.4297940193    0.9806948782   -0.0193051218          -1.269
O99        O    0.4806948782    1.0193051218    0.0702059807         -1.2672
O100       O    0.5193051218    0.9297940193    0.0193051218         -1.2624
O101       O    0.4297940193    1.0193051218    0.0193051218         -1.2692
O102       O    0.4806948782    0.9297940193   -0.0193051218         -1.2652
O103       O    0.5193051218    0.9806948782    0.0702059807          -1.271
O104       O    0.5702059807    1.0193051218   -0.0193051218         -1.2649
O105       O    0.4806948782    1.0702059807    0.0193051218         -1.2725
O106       O    0.5702059807    0.9806948782    0.0193051218         -1.2664
O107       O    0.5193051218    1.0702059807   -0.0193051218          -1.271
O108       O    0.5193051218    1.0193051218   -0.0702059807         -1.2701
O109       O    0.4806948782    0.9806948782   -0.0702059807          -1.268
C110       C    0.4160602057    1.0000000000    0.0000000000          0.2499
C111       C    0.5000000000    1.0000000000    0.0839397943          0.2548
C112       C    0.5000000000    0.9160602057    0.0000000000          0.2444
C113       C    0.5839397943    1.0000000000    0.0000000000          0.2481
C114       C    0.5000000000    1.0839397943    0.0000000000          0.2595
C115       C    0.5000000000    1.0000000000   -0.0839397943            0.25
Zn116     Zn    0.4737319143    0.9737319143    0.5262680857          1.4972
Zn117     Zn    0.4737319143    1.0262680857    0.4737319143          1.4936
Zn118     Zn    0.5262680857    1.0262680857    0.5262680857          1.4911
Zn119     Zn    0.5262680857    0.9737319143    0.4737319143          1.4948
O120       O    0.5000000000    1.0000000000    0.5000000000         -2.3627
O121       O    0.4297940193    0.9806948782    0.5193051218          -1.269
O122       O    0.4806948782    1.0702059807    0.4806948782         -1.2672
O123       O    0.5193051218    1.0193051218    0.5702059807         -1.2624
O124       O    0.4297940193    1.0193051218    0.4806948782         -1.2692
O125       O    0.4806948782    0.9806948782    0.5702059807         -1.2652
O126       O    0.5193051218    1.0702059807    0.5193051218          -1.271
O127       O    0.5702059807    0.9806948782    0.4806948782         -1.2649
O128       O    0.4806948782    1.0193051218    0.4297940193         -1.2725
O129       O    0.5702059807    1.0193051218    0.5193051218         -1.2664
O130       O    0.5193051218    0.9806948782    0.4297940193          -1.271
O131       O    0.5193051218    0.9297940193    0.4806948782         -1.2701
O132       O    0.4806948782    0.9297940193    0.5193051218          -1.268
C133       C    0.4160602057    1.0000000000    0.5000000000          0.2499
C134       C    0.5000000000    1.0839397943    0.5000000000          0.2548
C135       C    0.5000000000    1.0000000000    0.5839397943          0.2444
C136       C    0.5839397943    1.0000000000    0.5000000000          0.2481
C137       C    0.5000000000    1.0000000000    0.4160602057          0.2595
C138       C    0.5000000000    0.9160602057    0.5000000000            0.25
Zn139     Zn    0.4737319143    0.5262680857   -0.0262680857          1.4972
Zn140     Zn    0.4737319143    0.4737319143    0.0262680857          1.4936
Zn141     Zn    0.5262680857    0.4737319143   -0.0262680857          1.4911
Zn142     Zn    0.5262680857    0.5262680857    0.0262680857          1.4948
O143       O    0.5000000000    0.5000000000    0.0000000000         -2.3627
O144       O    0.4297940193    0.5193051218   -0.0193051218          -1.269
O145       O    0.4806948782    0.4297940193    0.0193051218         -1.2672
O146       O    0.5193051218    0.4806948782   -0.0702059807         -1.2624
O147       O    0.4297940193    0.4806948782    0.0193051218         -1.2692
O148       O    0.4806948782    0.5193051218   -0.0702059807         -1.2652
O149       O    0.5193051218    0.4297940193   -0.0193051218          -1.271
O150       O    0.5702059807    0.5193051218    0.0193051218         -1.2649
O151       O    0.4806948782    0.4806948782    0.0702059807         -1.2725
O152       O    0.5702059807    0.4806948782   -0.0193051218         -1.2664
O153       O    0.5193051218    0.5193051218    0.0702059807          -1.271
O154       O    0.5193051218    0.5702059807    0.0193051218         -1.2701
O155       O    0.4806948782    0.5702059807   -0.0193051218          -1.268
C156       C    0.4160602057    0.5000000000    0.0000000000          0.2499
C157       C    0.5000000000    0.4160602057    0.0000000000          0.2548
C158       C    0.5000000000    0.5000000000   -0.0839397943          0.2444
C159       C    0.5839397943    0.5000000000    0.0000000000          0.2481
C160       C    0.5000000000    0.5000000000    0.0839397943          0.2595
C161       C    0.5000000000    0.5839397943    0.0000000000            0.25
Zn162     Zn    0.4737319143    0.4737319143    0.4737319143          1.4972
Zn163     Zn    0.4737319143    0.5262680857    0.5262680857          1.4936
Zn164     Zn    0.5262680857    0.4737319143    0.5262680857          1.4911
Zn165     Zn    0.5262680857    0.5262680857    0.4737319143          1.4948
O166       O    0.5000000000    0.5000000000    0.5000000000         -2.3627
O167       O    0.4297940193    0.4806948782    0.4806948782          -1.269
O168       O    0.4806948782    0.5193051218    0.5702059807         -1.2672
O169       O    0.5193051218    0.4297940193    0.5193051218         -1.2624
O170       O    0.4297940193    0.5193051218    0.5193051218         -1.2692
O171       O    0.4806948782    0.4297940193    0.4806948782         -1.2652
O172       O    0.5193051218    0.4806948782    0.5702059807          -1.271
O173       O    0.5702059807    0.5193051218    0.4806948782         -1.2649
O174       O    0.4806948782    0.5702059807    0.5193051218         -1.2725
O175       O    0.5702059807    0.4806948782    0.5193051218         -1.2664
O176       O    0.5193051218    0.5702059807    0.4806948782          -1.271
O177       O    0.5193051218    0.5193051218    0.4297940193         -1.2701
O178       O    0.4806948782    0.4806948782    0.4297940193          -1.268
C179       C    0.4160602057    0.5000000000    0.5000000000          0.2499
C180       C    0.5000000000    0.5000000000    0.5839397943          0.2548
C181       C    0.5000000000    0.4160602057    0.5000000000          0.2444
C182       C    0.5839397943    0.5000000000    0.5000000000          0.2481
C183       C    0.5000000000    0.5839397943    0.5000000000          0.2595
C184       C    0.5000000000    0.5000000000    0.4160602057            0.25
C783       C    0.5000000000    0.5000000000   -0.3799802450         -0.5234
C784       C    0.4991322925    0.5272411150   -0.3638670276         -0.5225
C785       C    0.5001655034    0.5266366295   -0.3324940166         -0.5229
C786       C    0.5019303887    0.5000936173   -0.3153985161          -0.524
C787       C    0.5024751233    0.4734823056   -0.3322915671          0.4753
C788       C    0.5015899203    0.4734626306   -0.3634204937          0.4755
C789       C    0.5030878742    0.5001851926   -0.2834489653          0.4755
H790       H    0.4991725298    0.5494534674   -0.3215111719         -0.5218
N791       N    0.4971745584    0.5557963336   -0.3771362080          -0.521
H792       H    0.5023138084    0.4507717971   -0.3749556850          0.4748
H793       H    0.5039768067    0.4504397130   -0.3218927809          0.4742
C794       C    0.5041158943    0.5268899175   -0.2664408637          0.4747
C795       C    0.5053065004    0.5268357688   -0.2352507012          0.4742
C796       C    0.5054131679    0.5002007832   -0.2191134605          0.4745
C797       C    0.5044724471    0.4735391026   -0.2352297172          0.4752
C798       C    0.5034000575    0.4734752524   -0.2664047202          0.4756
N799       N    0.5061841761    0.5001842182   -0.1890172086          0.4743
H800       H    0.5061008530    0.5491083928   -0.2228548556          0.4736
H801       H    0.5043032089    0.5500253604   -0.2767269144          0.4743
H802       H    0.5024624322    0.4503791409   -0.2767084060         -0.5236
H803       H    0.5044875620    0.4512672676   -0.2227856928          0.4755
H804       H    0.5047398393    0.5592056394   -0.3995298439          0.4717
H805       H    0.5020171113    0.5754147734   -0.3644539702          0.4747
N806       N    0.5071100637    0.5075534883   -0.1600533277          0.4739
N807       N    0.5049968238    0.4791393782   -0.1404056107         -0.5237
N808       N    0.5000000000    0.5000000000   -0.1200197550         -0.5188
C757       C    0.5000000000    0.5000000000    0.1200197550         -0.5234
C758       C    0.4727560333    0.4992269921    0.1361329724         -0.5225
C759       C    0.4733641067    0.5002580955    0.1675059834         -0.5229
C760       C    0.4999130936    0.5019307024    0.1846014839          -0.524
C761       C    0.5265261381    0.5023829286    0.1677084329          0.4753
C762       C    0.5265427359    0.5014976626    0.1365795063          0.4755
C763       C    0.4998255425    0.5030884993    0.2165510347          0.4755
H764       H    0.4505439550    0.4993444429    0.1784888281         -0.5218
N765       N    0.4441941818    0.4973685324    0.1228637920          -0.521
H766       H    0.5492359486    0.5021426694    0.1250443150          0.4652
H767       H    0.5495738116    0.5038045033    0.1781072191          0.4742
C768       C    0.4731245525    0.5042093430    0.2335591363          0.4747
C769       C    0.4731828395    0.5053997538    0.2647492988          0.4742
C770       C    0.4998180350    0.5054138331    0.2808865395          0.4745
C771       C    0.5264762845    0.5043804378    0.2647702828          0.4752
C772       C    0.5265364065    0.5033078327    0.2335952798          0.4756
N773       N    0.4998372801    0.5061847791    0.3109827914          0.4743
H774       H    0.4509131115    0.5062715247    0.2771451444          0.4736
H775       H    0.4499899005    0.5044770790    0.2232730856          0.4743
H776       H    0.5496291191    0.5022899273    0.2232915940         -0.5236
H777       H    0.5487480374    0.5043181321    0.2772143072          0.4755
H778       H    0.4408111947    0.5049456189    0.1004701561          0.4717
H779       H    0.4245926940    0.5022792528    0.1355460298          0.4747
N780       N    0.4924712731    0.5071362778    0.3399466723          0.4739
N781       N    0.5208778655    0.5049242788    0.3595943893         -0.5237
N782       N    0.5000000000    0.5000000000    0.3799802450         -0.5188
C731       C    0.5000000000    0.8799802450    0.5000000000         -0.5234
C732       C    0.5031543011    0.8638670276    0.5270717869         -0.5225
C733       C    0.5040872029    0.8324940166    0.5263217058         -0.5229
C734       C    0.5019231221    0.8153985161    0.4998082550          -0.524
C735       C    0.4985421393    0.8322915671    0.4734069747          0.4753
C736       C    0.4976636938    0.8634204937    0.4735179024          0.4755
C737       C    0.5030814709    0.7834489653    0.4997283369          0.4755
H738       H    0.5064659201    0.8215111719    0.5490359258         -0.5218
N739       N    0.5054240295    0.8771362080    0.5556039016          -0.521
H740       H    0.4950373864    0.8749556850    0.4509679479          0.4748
H741       H    0.4966333300    0.8218927809    0.4503945308          0.4742
C742       C    0.5080318126    0.7664408637    0.5259903489          0.4747
C743       C    0.5092014560    0.7352507012    0.5257614177          0.4742
C744       C    0.5053836972    0.7191134605    0.4994012479          0.4745
C745       C    0.5005260429    0.7352297172    0.4731689517          0.4752
C746       C    0.4994559456    0.7664047202    0.4732637581          0.4756
N747       N    0.5061438555    0.6890172086    0.4992712961          0.4743
H748       H    0.5132678424    0.7228548556    0.5476740916          0.4736
H749       H    0.5116248734    0.7767269144    0.5488458453          0.4743
H750       H    0.4951265518    0.7767084060    0.4505576828         -0.5236
H751       H    0.4972604107    0.7227856928    0.4511378258          0.4755
H752       H    0.5134089719    0.8995298439    0.5578616738          0.4717
H753       H    0.5131035051    0.8644539702    0.5742950533          0.4747
N754       N    0.5081451177    0.6600533277    0.5064238033          0.4739
N755       N    0.5018696055    0.6404056107    0.4786309017         -0.5237
N756       N    0.5000000000    0.6200197550    0.5000000000         -0.5188
C705       C    0.5000000000    1.1200197550    0.5000000000         -0.5234
C706       C    0.5249963933    1.1361329724    0.5108633136         -0.5225
C707       C    0.5240081732    1.1675059834    0.5115388493         -0.5229
C708       C    0.4992592362    1.1846014839    0.5017850584          -0.524
C709       C    0.4749702676    1.1677084329    0.4908990743          0.4753
C710       C    0.4753309752    1.1365795063    0.4900904573          0.4755
C711       C    0.4988471029    1.2165510347    0.5028705560          0.4755
H712       H    0.5450586764    1.1784888281    0.5203972014         -0.5218
N713       N    0.5516467794    1.1228637920    0.5213031487          -0.521
H714       H    0.4545094323    1.1250443150    0.4810427344          0.4748
H715       H    0.4534981738    1.1781072191    0.4824040572          0.4742
C716       C    0.5225480397    1.2335591363    0.5152182179          0.4747
C717       C    0.5219900134    1.2647492988    0.5162713474          0.4742
C718       C    0.4978669520    1.2808865395    0.5049792375          0.4745
C719       C    0.4741675991    1.2647702828    0.4927288971          0.4752
C720       C    0.4745684101    1.2335952798    0.4917321790          0.4756
N721       N    0.4975223114    1.3109827914    0.5056691295          0.4743
H722       H    0.5417843375    1.2771451444    0.5265127099          0.4736
H723       H    0.5433818896    1.2232730856    0.5252797535          0.4743
H724       H    0.4540909313    1.2232915940    0.4810091960         -0.5236
H725       H    0.4540278777    1.2772143072    0.4832196131          0.4755
H726       H    0.5514939704    1.1004701561    0.5295997438          0.4717
H727       H    0.5673108567    1.1355460298    0.5340691261          0.4747
N728       N    0.5037880835    1.3399466723    0.5096570500          0.4739
N729       N    0.4790059155    1.3595943893    0.4955974772         -0.5237
N730       N    0.5000000000    1.3799802450    0.5000000000         -0.5188
C679       C    0.5000000000    0.8799802450    0.0000000000         -0.5234
C680       C    0.5163066048    0.8638670276   -0.0218386332         -0.5225
C681       C    0.5151134008    0.8324940166   -0.0219345057         -0.5229
C682       C    0.4984708410    0.8153985161   -0.0011818788          -0.524
C683       C    0.4827896000    0.8322915671    0.0203252671          0.4753
C684       C    0.4835041271    0.8634204937    0.0208481653          0.4755
C685       C    0.4975742275    0.7834489653   -0.0019196070          0.4755
H686       H    0.5289898759    0.8215111719   -0.0400738972         -0.5218
N687       N    0.5342592441    0.8771362080   -0.0441306941          -0.521
H688       H    0.4699204147    0.8749556850    0.0390382917          0.4748
H689       H    0.4683667848    0.8218927809    0.0383585289          0.4742
C690       C    0.5120194220    0.7664408637   -0.0244037240          0.4747
C691       C    0.5110122275    0.7352507012   -0.0250409321          0.4742
C692       C    0.4956766111    0.7191134605   -0.0032635882          0.4745
C693       C    0.4811844808    0.7352297172    0.0191352584          0.4752
C694       C    0.4820271952    0.7664047202    0.0198015383          0.4756
N695       N    0.4950349671    0.6890172086   -0.0036913978          0.4743
H696       H    0.5231116932    0.7228548556   -0.0437573341          0.4736
H697       H    0.5251105588    0.7767269144   -0.0434800428          0.4743
H698       H    0.4695737657    0.7767084060    0.0392751511         -0.5236
H699       H    0.4684217727    0.7227856928    0.0373876046          0.4755
H700       H    0.5300081411    0.8995298439   -0.0512570511          0.4717
H701       H    0.5415200485    0.8644539702   -0.0629884303          0.4747
N702       N    0.4984946229    0.6600533277   -0.0102636266          0.4739
N703       N    0.4839606166    0.6404056107    0.0142433131         -0.5237
N704       N    0.5000000000    0.6200197550    0.0000000000         -0.5188
C653       C    0.5000000000    1.1200197550    0.0000000000         -0.5234
C654       C    0.4733113011    1.1361329724   -0.0055267178         -0.5225
C655       C    0.4741406431    1.1675059834   -0.0063899206         -0.5229
C656       C    0.5003604021    1.1846014839   -0.0018987562          -0.524
C657       C    0.5263612331    1.1677084329    0.0037946990          0.4753
C658       C    0.5261733568    1.1365795063    0.0046599585          0.4755
C659       C    0.5005420453    1.2165510347   -0.0030455624          0.4755
H660       H    0.4517242531    1.1784888281   -0.0107602234         -0.5218
N661       N    0.4450900314    1.1228637920   -0.0103009375          -0.521
H662       H    0.5484043103    1.1250443150    0.0092624194          0.4748
H663       H    0.5491160806    1.1781072191    0.0077231903          0.4742
C664       C    0.4748181817    1.2335591363   -0.0102900084          0.4747
C665       C    0.4751492535    1.2647492988   -0.0114349392          0.4742
C666       C    0.5010706595    1.2808865395   -0.0053100271          0.4745
C667       C    0.5267730874    1.2647702828    0.0018394742          0.4752
C668       C    0.5265843877    1.2335952798    0.0028970605          0.4756
N669       N    0.5012670664    1.3109827914   -0.0060557834          0.4743
H670       H    0.4536799560    1.2771451444   -0.0174157449          0.4736
H671       H    0.4523680325    1.2232730856   -0.0158823790          0.4743
H672       H    0.5488208349    1.2232915940    0.0092097397         -0.5236
H673       H    0.5484309127    1.2772143072    0.0070330725          0.4755
H674       H    0.4435444070    1.1004701561   -0.0184537214          0.4717
H675       H    0.4271480001    1.1355460298   -0.0195970126          0.4747
N676       N    0.4943186483    1.3399466723   -0.0086793106          0.4739
N677       N    0.5214507200    1.3595943893    0.0000200063         -0.5237
N678       N    0.5000000000    1.3799802450    0.0000000000         -0.5188
C627       C    0.5000000000    1.0000000000   -0.1200197550         -0.5234
C628       C    0.5008677075    1.0272411150   -0.1361329724         -0.5225
C629       C    0.4998344966    1.0266366295   -0.1675059834         -0.5229
C630       C    0.4980696113    1.0000936173   -0.1846014839          -0.524
C631       C    0.4975248767    0.9734823056   -0.1677084329          0.4753
C632       C    0.4984100797    0.9734626306   -0.1365795063          0.4755
C633       C    0.4969121258    1.0001851926   -0.2165510347          0.4755
H634       H    0.5008274702    1.0494534674   -0.1784888281         -0.5218
N635       N    0.5028254416    1.0557963336   -0.1228637920          -0.521
H636       H    0.4976861916    0.9507717971   -0.1250443150          0.4748
H637       H    0.4960231933    0.9504397130   -0.1781072191          0.4742
C638       C    0.4958841057    1.0268899175   -0.2335591363          0.4747
C639       C    0.4946934996    1.0268357688   -0.2647492988          0.4742
C640       C    0.4945868321    1.0002007832   -0.2808865395          0.4745
C641       C    0.4955275529    0.9735391026   -0.2647702828          0.4752
C642       C    0.4965999425    0.9734752524   -0.2335952798          0.4756
N643       N    0.4938158239    1.0001842182   -0.3109827914          0.4743
H644       H    0.4938991470    1.0491083928   -0.2771451444          0.4736
H645       H    0.4956967911    1.0500253604   -0.2232730856          0.4743
H646       H    0.4975375678    0.9503791409   -0.2232915940         -0.5236
H647       H    0.4955124380    0.9512672676   -0.2772143072          0.4755
H648       H    0.4952601607    1.0592056394   -0.1004701561          0.4717
H649       H    0.4979828887    1.0754147734   -0.1355460298          0.4747
N650       N    0.4928899363    1.0075534883   -0.3399466723          0.4739
N651       N    0.4950031762    0.9791393782   -0.3595943893         -0.5237
N652       N    0.5000000000    1.0000000000   -0.3799802450         -0.5188
C601       C    0.5000000000    1.0000000000    0.1200197550         -0.5234
C602       C    0.5037616152    0.9730058986    0.1361329724         -0.5225
C603       C    0.5026699453    0.9734970036    0.1675059834         -0.5229
C604       C    0.4980905344    0.9997014940    0.1846014839          -0.524
C605       C    0.4947170781    1.0261037370    0.1677084329          0.4753
C606       C    0.4955951612    1.0262174983    0.1365795063          0.4755
C607       C    0.4969493660    0.9994872661    0.2165510347          0.4755
H608       H    0.5060853104    0.9509153880    0.1784888281         -0.5218
N609       N    0.5087469066    0.9448211490    0.1228637920          -0.521
H610       H    0.4924607622    1.0487024595    0.1250443150          0.4748
H611       H    0.4907718681    1.0488556918    0.1781072191          0.4742
C612       C    0.4987689384    0.9728247772    0.2335591363          0.4747
C613       C    0.4975793304    0.9727519213    0.2647492988          0.4742
C614       C    0.4946389347    0.9992243203    0.2808865395          0.4745
C615       C    0.4927371393    1.0258347194    0.2647702828          0.4752
C616       C    0.4937966452    1.0260123243    0.2335952798          0.4756
N617       N    0.4938705416    0.9991587452    0.3109827914          0.4743
H618       H    0.4991596061    0.9505212330    0.2771451444          0.4736
H619       H    0.5010446212    0.9498007664    0.2232730856          0.4743
H620       H    0.4922711982    1.0490770705    0.2232915940         -0.5236
H621       H    0.4903520764    1.0479784846    0.2772143072          0.4755
H622       H    0.5015873798    0.9406261502    0.1004701561          0.4717
H623       H    0.5060195258    0.9247987893    0.1355460298          0.4747
N624       N    0.4937341044    0.9917327911    0.3399466723          0.4739
N625       N    0.4928116875    1.0202104416    0.3595943893         -0.5237
N626       N    0.5000000000    1.0000000000    0.3799802450         -0.5188
C575       C    0.8799802450    0.5000000000    0.5000000000         -0.5234
C576       C    0.8638670276    0.5117214166    0.4753943167         -0.5225
C577       C    0.8324940166    0.5123623664    0.4764053116         -0.5229
C578       C    0.8153985161    0.5017583679    0.5008020641          -0.524
C579       C    0.8322915671    0.4900387636    0.5246999619          0.4753
C580       C    0.8634204937    0.4892431069    0.5243115008          0.4755
C581       C    0.7834489653    0.5028289606    0.5012514973          0.4755
H582       H    0.8215111719    0.5219435364    0.4556738074         -0.5218
N583       N    0.8771362080    0.5230768183    0.4491209825          -0.521
H584       H    0.8749556850    0.4794805990    0.5448076317          0.4748
H585       H    0.8218927809    0.4808061286    0.5458653720          0.4742
C586       C    0.7664408637    0.5159890286    0.4779918376          0.4747
C587       C    0.7352507012    0.5170222263    0.4785859568          0.4742
C588       C    0.7191134605    0.5049024778    0.5023039991          0.4745
C589       C    0.7352297172    0.4918397278    0.5255654422          0.4752
C590       C    0.7664047202    0.4908574698    0.5251303954          0.4756
N591       N    0.6890172086    0.5055800361    0.5026722962          0.4743
H592       H    0.7228548556    0.5279421290    0.4591577170          0.4736
H593       H    0.7767269144    0.5267651683    0.4575184740          0.4743
H594       H    0.7767084060    0.4794326051    0.5452247221         -0.5236
H595       H    0.7227856928    0.4816395186    0.5453641944          0.4755
H596       H    0.8995298439    0.5313631633    0.4495606721          0.4717
H597       H    0.8644539702    0.5363769636    0.4339078423          0.4747
N598       N    0.6600533277    0.5097822979    0.4965482122          0.4739
N599       N    0.6404056107    0.4948739446    0.5208292425         -0.5237
N600       N    0.6200197550    0.5000000000    0.5000000000         -0.5188
C549       C    1.1200197550    0.5000000000    0.5000000000         -0.5234
C550       C    1.1361329724    0.5088499572    0.4742219179         -0.5225
C551       C    1.1675059834    0.5076845656    0.4744953950         -0.5229
C552       C    1.1846014839    0.4981827461    0.4993421603          -0.524
C553       C    1.1677084329    0.4898268806    0.5246134514          0.4753
C554       C    1.1365795063    0.4906670512    0.5248928883          0.4755
C555       C    1.2165510347    0.4971035327    0.4989138412          0.4755
H556       H    1.1784888281    0.5153515778    0.4529823522         -0.5218
N557       N    1.1228637920    0.5191285389    0.4475089249          -0.521
H558       H    1.1250443150    0.4832942962    0.5463647402          0.4748
H559       H    1.1781072191    0.4816072388    0.5461924602          0.4742
C560       C    1.2335591363    0.5039838650    0.4730902050          0.4747
C561       C    1.2647492988    0.5028300931    0.4727913983          0.4742
C562       C    1.2808865395    0.4948859057    0.4982142959          0.4745
C563       C    1.2647702828    0.4879348176    0.5239710919          0.4752
C564       C    1.2335952798    0.4889408704    0.5243478599          0.4756
N565       N    1.3109827914    0.4941441976    0.4980031155          0.4743
H566       H    1.2771451444    0.5086287731    0.4512721956          0.4736
H567       H    1.2232730856    0.5106167174    0.4509251633          0.4743
H568       H    1.2232915940    0.4830366493    0.5466962307         -0.5236
H569       H    1.2772143072    0.4813627847    0.5452512058          0.4755
H570       H    1.1004701561    0.5129024294    0.4420232708          0.4717
H571       H    1.1355460298    0.5202769857    0.4273343228          0.4747
N572       N    1.3399466723    0.4954291174    0.4906878991          0.4739
N573       N    1.3595943893    0.4890825978    0.5184646721         -0.5237
N574       N    1.3799802450    0.5000000000    0.5000000000         -0.5188
C523       C    0.6200197550    0.5000000000    0.0000000000         -0.5234
C524       C    0.6361329724    0.5230633792    0.0145228028         -0.5225
C525       C    0.6675059834    0.5230642952    0.0133257537         -0.5229
C526       C    0.6846014839    0.5010568492   -0.0016180959          -0.524
C527       C    0.6677084329    0.4783735215   -0.0155438020          0.4753
C528       C    0.6365795063    0.4779089531   -0.0147900462          0.4755
C529       C    0.7165510347    0.5017211261   -0.0025704063          0.4755
H530       H    0.6784888281    0.5422473134    0.0257195384         -0.5218
N531       N    0.6228637920    0.5467093335    0.0306504834          -0.521
H532       H    0.6250443150    0.4586985842   -0.0268879661          0.4748
H533       H    0.6781072191    0.4592529585   -0.0284906240          0.4742
C534       C    0.7335591363    0.5252802930    0.0100456475          0.4747
C535       C    0.7647492988    0.5258355944    0.0089910787          0.4742
C536       C    0.7808865395    0.5029103379   -0.0045686577          0.4745
C537       C    0.7647702828    0.4794324493   -0.0172382636          0.4752
C538       C    0.7335952798    0.4788351199   -0.0163453504          0.4756
N539       N    0.8109827914    0.5032858990   -0.0052422169          0.4743
H540       H    0.7771451444    0.5454528383    0.0195676810          0.4736
H541       H    0.7232730856    0.5453349867    0.0215822443          0.4743
H542       H    0.7232915940    0.4584349723   -0.0272147331         -0.5236
H543       H    0.7772143072    0.4602251851   -0.0285128307          0.4755
H544       H    0.6004701561    0.5534760012    0.0258474585          0.4717
H545       H    0.6355460298    0.5660836254    0.0363924613          0.4747
N546       N    0.8399466723    0.5101118631   -0.0023148250          0.4739
N547       N    0.8595943893    0.4845292030   -0.0148589444         -0.5237
N548       N    0.8799802450    0.5000000000    0.0000000000         -0.5188
C497       C    1.1200197550    0.5000000000    0.0000000000         -0.5234
C498       C    1.1361329724    0.5087540698   -0.0258108024         -0.5225
C499       C    1.1675059834    0.5075897028   -0.0255329950         -0.5229
C500       C    1.1846014839    0.4981803133   -0.0006510798          -0.524
C501       C    1.1677084329    0.4899184478    0.0246510985          0.4753
C502       C    1.1365795063    0.4907596513    0.0249274102          0.4755
C503       C    1.2165510347    0.4970995151   -0.0010753841          0.4755
H504       H    1.1784888281    0.5151766905   -0.0470743902         -0.5218
N505       N    1.1228637920    0.5189332788   -0.0525618200          -0.521
H506       H    1.1250443150    0.4834667658    0.0464265209          0.4748
H507       H    1.1781072191    0.4817790796    0.0462605134          0.4742
C508       C    1.2335591363    0.5038838043   -0.0269244185          0.4747
C509       C    1.2647492988    0.5027289296   -0.0272189342          0.4742
C510       C    1.2808865395    0.4948793029   -0.0017666809          0.4745
C511       C    1.2647702828    0.4880240100    0.0240157769          0.4752
C512       C    1.2335952798    0.4890314565    0.0243888024          0.4756
N513       N    1.3109827914    0.4941368149   -0.0019751027          0.4743
H514       H    1.2771451444    0.5084475750   -0.0487595439          0.4736
H515       H    1.2232730856    0.5104342155   -0.0491139637          0.4743
H516       H    1.2232915940    0.4832103530    0.0467589668         -0.5236
H517       H    1.2772143072    0.4815311283    0.0453201742          0.4755
H518       H    1.1004701561    0.5126868202   -0.0580242915          0.4717
H519       H    1.1355460298    0.5200067216   -0.0727405518          0.4747
N520       N    1.3399466723    0.4953945326   -0.0092950450          0.4739
N521       N    1.3595943893    0.4891513129    0.0185051284         -0.5237
N522       N    1.3799802450    0.5000000000    0.0000000000         -0.5188
C471       C    1.0000000000    0.5000000000   -0.1200197550         -0.5234
C472       C    1.0272439667    0.4992269921   -0.1361329724         -0.5225
C473       C    1.0266358933    0.5002580955   -0.1675059834         -0.5229
C474       C    1.0000869064    0.5019307024   -0.1846014839          -0.524
C475       C    0.9734738619    0.5023829286   -0.1677084329          0.4753
C476       C    0.9734572641    0.5014976626   -0.1365795063          0.4755
C477       C    1.0001744575    0.5030884993   -0.2165510347          0.4755
H478       H    1.0494560450    0.4993444429   -0.1784888281         -0.5218
N479       N    1.0558058182    0.4973685324   -0.1228637920          -0.521
H480       H    0.9507640514    0.5021426694   -0.1250443150          0.4748
H481       H    0.9504261884    0.5038045033   -0.1781072191          0.4742
C482       C    1.0268754475    0.5042093430   -0.2335591363          0.4747
C483       C    1.0268171605    0.5053997538   -0.2647492988          0.4742
C484       C    1.0001819650    0.5054138331   -0.2808865395          0.4745
C485       C    0.9735237155    0.5043804378   -0.2647702828          0.4752
C486       C    0.9734635935    0.5033078327   -0.2335952798          0.4756
N487       N    1.0001627199    0.5061847791   -0.3109827914          0.4743
H488       H    1.0490868885    0.5062715247   -0.2771451444          0.4736
H489       H    1.0500100995    0.5044770790   -0.2232730856          0.4743
H490       H    0.9503708809    0.5022899273   -0.2232915940         -0.5236
H491       H    0.9512519626    0.5043181321   -0.2772143072          0.4755
H492       H    1.0591888053    0.5049456189   -0.1004701561          0.4717
H493       H    1.0754073060    0.5022792528   -0.1355460298          0.4747
N494       N    1.0075287269    0.5071362778   -0.3399466723          0.4739
N495       N    0.9791221345    0.5049242788   -0.3595943893         -0.5237
N496       N    1.0000000000    0.5000000000   -0.3799802450         -0.5188
C445       C    1.0000000000    0.5000000000    0.1200197550         -0.5234
C446       C    0.9727560333    0.4992269921    0.1361329724         -0.5225
C447       C    0.9733641067    0.5002580955    0.1675059834         -0.5229
C448       C    0.9999130936    0.5019307024    0.1846014839          -0.524
C449       C    1.0265261381    0.5023829286    0.1677084329          0.4753
C450       C    1.0265427359    0.5014976626    0.1365795063          0.4755
C451       C    0.9998255425    0.5030884993    0.2165510347          0.4755
H452       H    0.9505439550    0.4993444429    0.1784888281         -0.5218
N453       N    0.9441941818    0.4973685324    0.1228637920          -0.521
H454       H    1.0492359486    0.5021426694    0.1250443150          0.4748
H455       H    1.0495738116    0.5038045033    0.1781072191          0.4742
C456       C    0.9731245525    0.5042093430    0.2335591363          0.4747
C457       C    0.9731828395    0.5053997538    0.2647492988          0.4742
C458       C    0.9998180350    0.5054138331    0.2808865395          0.4745
C459       C    1.0264762845    0.5043804378    0.2647702828          0.4752
C460       C    1.0265364065    0.5033078327    0.2335952798          0.4756
N461       N    0.9998372801    0.5061847791    0.3109827914          0.4743
H462       H    0.9509131115    0.5062715247    0.2771451444          0.4736
H463       H    0.9499899005    0.5044770790    0.2232730856          0.4743
H464       H    1.0496291191    0.5022899273    0.2232915940         -0.5236
H465       H    1.0487480374    0.5043181321    0.2772143072          0.4755
H466       H    0.9408111947    0.5049456189    0.1004701561          0.4717
H467       H    0.9245926940    0.5022792528    0.1355460298          0.4747
N468       N    0.9924712731    0.5071362778    0.3399466723          0.4739
N469       N    1.0208778655    0.5049242788    0.3595943893         -0.5237
N470       N    1.0000000000    0.5000000000    0.3799802450         -0.5188
C419       C    1.0000000000   -0.1200197550    0.5000000000         -0.5234
C420       C    1.0272439667   -0.1361329724    0.5007730079         -0.5225
C421       C    1.0266358933   -0.1675059834    0.4997419045         -0.5229
C422       C    1.0000869064   -0.1846014839    0.4980692976          -0.524
C423       C    0.9734738619   -0.1677084329    0.4976170714          0.4753
C424       C    0.9734572641   -0.1365795063    0.4985023374          0.4755
C425       C    1.0001744575   -0.2165510347    0.4969115007          0.4755
H426       H    1.0494560450   -0.1784888281    0.5006555571         -0.5218
N427       N    1.0558058182   -0.1228637920    0.5026314676          -0.521
H428       H    0.9507640514   -0.1250443150    0.4978573306          0.4748
H429       H    0.9504261884   -0.1781072191    0.4961954967          0.4742
C430       C    1.0268754475   -0.2335591363    0.4957906570          0.4747
C431       C    1.0268171605   -0.2647492988    0.4946002462          0.4742
C432       C    1.0001819650   -0.2808865395    0.4945861669          0.4745
C433       C    0.9735237155   -0.2647702828    0.4956195622          0.4752
C434       C    0.9734635935   -0.2335952798    0.4966921673          0.4756
N435       N    1.0001627199   -0.3109827914    0.4938152209          0.4743
H436       H    1.0490868885   -0.2771451444    0.4937284753          0.4736
H437       H    1.0500100995   -0.2232730856    0.4955229210          0.4743
H438       H    0.9503708809   -0.2232915940    0.4977100727         -0.5236
H439       H    0.9512519626   -0.2772143072    0.4956818679          0.4755
H440       H    1.0591888053   -0.1004701561    0.4950543811          0.4717
H441       H    1.0754073060   -0.1355460298    0.4977207472          0.4747
N442       N    1.0075287269   -0.3399466723    0.4928637222          0.4739
N443       N    0.9791221345   -0.3595943893    0.4950757212         -0.5237
N444       N    1.0000000000   -0.3799802450    0.5000000000         -0.5188
C393       C    1.0000000000    0.3799802450    0.5000000000         -0.5234
C394       C    0.9904793618    0.3638670276    0.4744620144         -0.5225
C395       C    0.9897523032    0.3324940166    0.4754129682         -0.5229
C396       C    0.9981781243    0.3153985161    0.5006449292          -0.524
C397       C    1.0077589664    0.3322915671    0.5254776920          0.4753
C398       C    1.0085855967    0.3634204937    0.5251604322          0.4755
C399       C    0.9970722733    0.2834489653    0.5009988394          0.4755
H400       H    0.9820242646    0.3215111719    0.4539217722         -0.5218
N401       N    0.9814694344    0.3771362080    0.4472948569          -0.521
H402       H    1.0165148970    0.3749556850    0.5464330469          0.4748
H403       H    1.0151017955    0.3218927809    0.5473705902          0.4742
C404       C    0.9860005903    0.2664408637    0.4766756613          0.4747
C405       C    0.9849193146    0.2352507012    0.4771769774          0.4742
C406       C    0.9949145193    0.2191134605    0.5018656330          0.4745
C407       C    1.0058891023    0.2352297172    0.5261820616          0.4752
C408       C    1.0069056978    0.2664047202    0.5258347434          0.4756
N409       N    0.9942072998    0.1890172086    0.5021731530          0.4743
H410       H    0.9757435118    0.2228548556    0.4568667480          0.4736
H411       H    0.9770595612    0.2767269144    0.4553369218          0.4743
H412       H    1.0165261650    0.2767084060    0.5468527384         -0.5236
H413       H    1.0143155183    0.2227856928    0.5467983264          0.4755
H414       H    0.9731764305    0.3995298439    0.4470068879          0.4717
H415       H    0.9695532559    0.3644539702    0.4309749860          0.4747
N416       N    0.9905577283    0.1600533277    0.4957044563          0.4739
N417       N    1.0032814918    0.1404056107    0.5211982452         -0.5237
N418       N    1.0000000000    0.1200197550    0.5000000000         -0.5188
C367       C    0.8799802450   -0.0000000000    0.5000000000         -0.5234
C368       C    0.8638670276   -0.0187219297    0.4801929151         -0.5225
C369       C    0.8324940166   -0.0175478091    0.4799597450         -0.5229
C370       C    0.8153985161    0.0013822752    0.4986492669          -0.524
C371       C    0.8322915671    0.0194447124    0.5181993822          0.4753
C372       C    0.8634204937    0.0187954257    0.5188013774          0.4755
C373       C    0.7834489653    0.0021875921    0.4978128319          0.4755
H374       H    0.8215111719   -0.0334282515    0.4635461642         -0.5218
N375       N    0.8771362080   -0.0391312761    0.4601257327          -0.521
H376       H    0.8749556850    0.0343909334    0.5352991978          0.4748
H377       H    0.8218927809    0.0358555626    0.5344443852          0.4742
C378       C    0.7664408637   -0.0147600288    0.4771494027          0.4747
C379       C    0.7352507012   -0.0138332517    0.4764000300          0.4742
C380       C    0.7191134605    0.0039171144    0.4962584876          0.4745
C381       C    0.7352297172    0.0209014986    0.5168317923          0.4752
C382       C    0.7664047202    0.0201414597    0.5175910269          0.4756
N383       N    0.6890172086    0.0045049994    0.4957593691          0.4743
H384       H    0.7228548556   -0.0280153044    0.4592078762          0.4736
H385       H    0.7767269144   -0.0299687118    0.4597143872          0.4743
H386       H    0.7767084060    0.0347626403    0.5354943948         -0.5236
H387       H    0.7227856928    0.0356886996    0.5334863276          0.4755
H388       H    0.8995298439   -0.0357325186    0.4525557071          0.4717
H389       H    0.8644539702   -0.0485234484    0.4422338184          0.4747
N390       N    0.6600533277    0.0003087568    0.4896311592          0.4739
N391       N    0.6404056107    0.0175784425    0.5122935816         -0.5237
N392       N    0.6200197550   -0.0000000000    0.5000000000         -0.5188
C341       C    1.3799802450   -0.0000000000    0.5000000000         -0.5234
C342       C    1.3638670276    0.0177331268    0.4793029598         -0.5225
C343       C    1.3324940166    0.0180882171    0.4804461301         -0.5229
C344       C    1.3153985161    0.0014883260    0.5012329032          -0.524
C345       C    1.3322915671   -0.0160584544    0.5212471267          0.4753
C346       C    1.3634204937   -0.0167252596    0.5206645956          0.4755
C347       C    1.2834489653    0.0024046497    0.5019460019          0.4755
H348       H    1.3215111719    0.0327447495    0.4629309897         -0.5218
N349       N    1.3771362080    0.0355478447    0.4569005254          -0.521
H350       H    1.3749556850   -0.0314954664    0.5379052142          0.4748
H351       H    1.3218927809   -0.0304916810    0.5392720566          0.4742
C352       C    1.2664408637    0.0211755817    0.4829236132          0.4747
C353       C    1.2352507012    0.0220180693    0.4837666374          0.4742
C354       C    1.2191134605    0.0041319014    0.5035028690          0.4745
C355       C    1.2352297172   -0.0145455458    0.5225523607          0.4752
C356       C    1.2664047202   -0.0153803441    0.5218761889          0.4756
N357       N    1.1890172086    0.0046899545    0.5040351328          0.4743
H358       H    1.2228548556    0.0376270983    0.4678588096          0.4736
H359       H    1.2767269144    0.0369184011    0.4659693382          0.4743
H360       H    1.2767084060   -0.0316505803    0.5382953521         -0.5236
H361       H    1.2227856928   -0.0295564228    0.5390055802          0.4755
H362       H    1.3995298439    0.0434327278    0.4594861508          0.4717
H363       H    1.3644539702    0.0523554013    0.4456827031          0.4747
N364       N    1.1600533277    0.0103439940    0.4992189884          0.4739
N365       N    1.1404056107   -0.0103810986    0.5187714299         -0.5237
N366       N    1.1200197550   -0.0000000000    0.5000000000         -0.5188
C315       C   -0.0000000000   -0.1200197550    0.0000000000         -0.5234
C316       C   -0.0129969534   -0.1361329724   -0.0239564284         -0.5225
C317       C   -0.0135839463   -0.1675059834   -0.0229131802         -0.5229
C318       C   -0.0017138382   -0.1846014839    0.0008932654          -0.524
C319       C    0.0112441495   -0.1677084329    0.0241429793          0.4753
C320       C    0.0120183164   -0.1365795063    0.0237132851          0.4755
C321       C   -0.0027593613   -0.2165510347    0.0013982806          0.4755
H322       H   -0.0242402254   -0.1784888281   -0.0431131258         -0.5218
N323       N   -0.0257159415   -0.1228637920   -0.0495974225          -0.521
H324       H    0.0228433272   -0.1250443150    0.0436686623          0.4748
H325       H    0.0215751525   -0.1781072191    0.0447945291          0.4742
C326       C   -0.0171223216   -0.2335591363   -0.0211384567          0.4747
C327       C   -0.0181229058   -0.2647492988   -0.0204909180          0.4742
C328       C   -0.0047747673   -0.2808865395    0.0025581825          0.4745
C329       C    0.0094911028   -0.2647702828    0.0251018096          0.4752
C330       C    0.0104491681   -0.2335952798    0.0246157980          0.4756
N331       N   -0.0054320572   -0.3109827914    0.0029615409          0.4743
H332       H   -0.0300476555   -0.2771451444   -0.0393191181          0.4736
H333       H   -0.0289583714   -0.2232730856   -0.0410178865          0.4743
H334       H    0.0229131506   -0.2232915940    0.0440826582         -0.5236
H335       H    0.0207166019   -0.2772143072    0.0443377923          0.4755
H336       H   -0.0339677788   -0.1004701561   -0.0487233396          0.4717
H337       H   -0.0397963761   -0.1355460298   -0.0640913819          0.4747
N338       N   -0.0099500143   -0.3399466723   -0.0029334971          0.4739
N339       N    0.0062124384   -0.3595943893    0.0205314246         -0.5237
N340       N    0.0000000000   -0.3799802450    0.0000000000         -0.5188
C289       C   -0.0000000000    0.3799802450    0.0000000000         -0.5234
C290       C   -0.0272149877    0.3638670276   -0.0014750263         -0.5225
C291       C   -0.0266336955    0.3324940166   -0.0004285910         -0.5229
C292       C   -0.0001366458    0.3153985161    0.0019278207          -0.524
C293       C    0.0264558983    0.3322915671    0.0030659084          0.4753
C294       C    0.0264953103    0.3634204937    0.0021813644          0.4755
C295       C   -0.0002540126    0.2834489653    0.0030829760          0.4755
H296       H   -0.0494227128    0.3215111719   -0.0019301814         -0.5218
N297       N   -0.0557194425    0.3771362080   -0.0040691152          -0.521
H298       H    0.0491643559    0.3749556850    0.0034111261          0.4748
H299       H    0.0494592690    0.3218927809    0.0050811169          0.4742
C300       C   -0.0269750225    0.2664408637    0.0035151685          0.4747
C301       C   -0.0269474403    0.2352507012    0.0047066861          0.4742
C302       C   -0.0003214584    0.2191134605    0.0054073436          0.4745
C303       C    0.0263545709    0.2352297172    0.0050614687          0.4752
C304       C    0.0264423218    0.2664047202    0.0039907698          0.4756
N305       N   -0.0003220926    0.1890172086    0.0061785295          0.4743
H306       H   -0.0492322403    0.2228548556    0.0050041145          0.4736
H307       H   -0.0501088886    0.2767269144    0.0031864671          0.4743
H308       H    0.0495535997    0.2767084060    0.0035684700         -0.5236
H309       H    0.0486205293    0.2227856928    0.0055732889          0.4755
H310       H   -0.0592966221    0.3995298439    0.0034182493          0.4717
H311       H   -0.0754410019    0.3644539702    0.0003347005          0.4747
N312       N   -0.0077101790    0.1600533277    0.0069398364          0.4739
N313       N    0.0207439935    0.1404056107    0.0054608170         -0.5237
N314       N    0.0000000000    0.1200197550    0.0000000000         -0.5188
C263       C   -0.3799802450   -0.0000000000    0.0000000000         -0.5234
C264       C   -0.3638670276    0.0232162493   -0.0142771506         -0.5225
C265       C   -0.3324940166    0.0221426998   -0.0148066967         -0.5229
C266       C   -0.3153985161   -0.0009849043   -0.0016628675          -0.524
C267       C   -0.3322915671   -0.0234975926    0.0125370447          0.4753
C268       C   -0.3634204937   -0.0230265423    0.0132867667          0.4755
C269       C   -0.2834489653   -0.0015458823   -0.0026794610          0.4755
H270       H   -0.3215111719    0.0417349469   -0.0265428775         -0.5218
N271       N   -0.3771362080    0.0481296607   -0.0283681111          -0.521
H272       H   -0.3749556850   -0.0423654295    0.0251781662          0.4748
H273       H   -0.3218927809   -0.0435584213    0.0239729218          0.4742
C274       C   -0.2664408637    0.0201786773   -0.0182436079          0.4747
C275       C   -0.2352507012    0.0194778229   -0.0192075987          0.4742
C276       C   -0.2191134605   -0.0028133867   -0.0046289908          0.4745
C277       C   -0.2352297172   -0.0245500917    0.0108385825          0.4752
C278       C   -0.2664047202   -0.0240128329    0.0117688778          0.4756
N279       N   -0.1890172086   -0.0032518009   -0.0052634362          0.4743
H280       H   -0.2228548556    0.0376315454   -0.0321359835          0.4736
H281       H   -0.2767269144    0.0393868930   -0.0311404390          0.4743
H282       H   -0.2767084060   -0.0427750290    0.0252703407         -0.5236
H283       H   -0.2227856928   -0.0431489220    0.0230908629          0.4755
H284       H   -0.3995298439    0.0468093085   -0.0365603947          0.4717
H285       H   -0.3644539702    0.0618386041   -0.0432139310          0.4747
N286       N   -0.1600533277    0.0023895191   -0.0100944732          0.4739
N287       N   -0.1404056107   -0.0201642593    0.0073168596         -0.5237
N288       N   -0.1200197550   -0.0000000000    0.0000000000         -0.5188
C237       C    0.3799802450   -0.0000000000    0.0000000000         -0.5234
C238       C    0.3638670276   -0.0181647737    0.0203192583         -0.5225
C239       C    0.3324940166   -0.0184957269    0.0191688682         -0.5229
C240       C    0.3153985161   -0.0014620496   -0.0012639523          -0.524
C241       C    0.3322915671    0.0165020489   -0.0209044668          0.4753
C242       C    0.3634204937    0.0171564468   -0.0203080317          0.4755
C243       C    0.2834489653   -0.0023631631   -0.0019961773          0.4755
H244       H    0.3215111719   -0.0335176237    0.0363716791         -0.5218
N245       N    0.3771362080   -0.0364470107    0.0423418160          -0.521
H246       H    0.3749556850    0.0322862154   -0.0372339893          0.4748
H247       H    0.3218927809    0.0313114179   -0.0386216539          0.4742
C248       C    0.2664408637   -0.0215302686    0.0166269595          0.4747
C249       C    0.2352507012   -0.0223548279    0.0157663916          0.4742
C250       C    0.2191134605   -0.0040572675   -0.0035890500          0.4745
C251       C    0.2352297172    0.0150169443   -0.0222412513          0.4752
C252       C    0.2664047202    0.0158373275   -0.0215476608          0.4756
N253       N    0.1890172086   -0.0046039954   -0.0041329403          0.4743
H254       H    0.2228548556   -0.0382951841    0.0313422004          0.4736
H255       H    0.2767269144   -0.0376264082    0.0332461681          0.4743
H256       H    0.2767084060    0.0324495055   -0.0376207764         -0.5236
H257       H    0.2227856928    0.0303707587   -0.0383749193          0.4755
H258       H    0.3995298439   -0.0442757324    0.0395908239          0.4717
H259       H    0.3644539702   -0.0534869266    0.0532034347          0.4747
N260       N    0.1600533277   -0.0103581396    0.0005631468          0.4739
N261       N    0.1404056107    0.0107738488   -0.0185487997         -0.5237
N262       N    0.1200197550   -0.0000000000    0.0000000000         -0.5188
C211       C    0.0000000000    0.0000000000   -0.3799802450         -0.5234
C212       C    0.0227702430    0.0149782274   -0.3638670276         -0.5225
C213       C    0.0227949454    0.0137814328   -0.3324940166         -0.5229
C214       C    0.0010887937   -0.0015967758   -0.3153985161          -0.524
C215       C   -0.0213133377   -0.0159704723   -0.3322915671          0.4753
C216       C   -0.0217927923   -0.0152260968   -0.3634204937          0.4755
C217       C    0.0017718628   -0.0025356983   -0.2834489653          0.4755
H218       H    0.0417278992    0.0265539558   -0.3215111719         -0.5218
N219       N    0.0460910556    0.0315725919   -0.3771362080          -0.521
H220       H   -0.0407589707   -0.0277033569   -0.3749556850          0.4748
H221       H   -0.0401728593   -0.0292946824   -0.3218927809          0.4742
C222       C    0.0250756846    0.0105460083   -0.2664408637          0.4747
C223       C    0.0256518317    0.0095026821   -0.2352507012          0.4742
C224       C    0.0030005470   -0.0045099244   -0.2191134605          0.4745
C225       C   -0.0202209485   -0.0176435574   -0.2352297172          0.4752
C226       C   -0.0208359030   -0.0167626900   -0.2664047202          0.4756
N227       N    0.0033894182   -0.0051758877   -0.1890172086          0.4743
H228       H    0.0450550347    0.0204670100   -0.2228548556          0.4736
H229       H    0.0448971750    0.0224788337   -0.2767269144          0.4743
H230       H   -0.0410160373   -0.0280352976   -0.2767084060         -0.5236
H231       H   -0.0392003835   -0.0292975656   -0.2227856928          0.4755
H232       H    0.0529518281    0.0269049757   -0.3995298439          0.4717
H233       H    0.0653474234    0.0376984223   -0.3644539702          0.4747
N234       N    0.0101558644   -0.0021134353   -0.1600533277          0.4739
N235       N   -0.0151724805   -0.0151634305   -0.1404056107         -0.5237
N236       N    0.0000000000    0.0000000000   -0.1200197550         -0.5188
C185       C    0.0000000000    0.0000000000    0.1200197550         -0.5234
C186       C    0.0056424606    0.0266644688    0.1361329724         -0.5225
C187       C    0.0065020571    0.0258313894    0.1675059834         -0.5229
C188       C    0.0018971746   -0.0003686369    0.1846014839          -0.524
C189       C   -0.0039090374   -0.0263445208    0.1677084329          0.4753
C190       C   -0.0047734736   -0.0261528922    0.1365795063          0.4755
C191       C    0.0030431820   -0.0005552540    0.2165510347          0.4755
H192       H    0.0109695773    0.0482286068    0.1784888281         -0.5218
N193       N    0.0105390797    0.0548647589    0.1228637920          -0.521
H194       H   -0.0094723452   -0.0483636676    0.1250443150          0.4748
H195       H   -0.0079362187   -0.0490821095    0.1781072191          0.4742
C196       C    0.0103991685    0.0251369358    0.2335591363          0.4747
C197       C    0.0115426521    0.0248008996    0.2647492988          0.4742
C198       C    0.0053053319   -0.0010936882    0.2808865395          0.4745
C199       C   -0.0019556179   -0.0267648545    0.2647702828          0.4752
C200       C   -0.0030123755   -0.0265715679    0.2335952798          0.4756
N201       N    0.0060502290   -0.0012933288    0.3109827914          0.4743
H202       H    0.0176165508    0.0462440459    0.2771451444          0.4736
H203       H    0.0160888914    0.0475626099    0.2232730856          0.4743
H204       H   -0.0094214731   -0.0487804169    0.2232915940         -0.5236
H205       H   -0.0072431346   -0.0483999423    0.2772143072          0.4755
H206       H    0.0186984929    0.0563749960    0.1004701561          0.4717
H207       H    0.0199129128    0.0727662881    0.1355460298          0.4747
N208       N    0.0087038787    0.0056436411    0.3399466723          0.4739
N209       N   -0.0001130749   -0.0214504313    0.3595943893         -0.5237
N210       N   -0.0000000000    0.0000000000    0.3799802450         -0.5188
loop_
_geom_bond_atom_site_label_1
_geom_bond_atom_site_label_2
_geom_bond_distance
_geom_bond_site_symmetry_2
_ccdc_geom_bond_type
Zn1          O5 1.942       .   S
Zn1          O6 1.922       .   S
Zn1         O10 1.922       .   S
Zn1         O17 1.922       .   S
Zn2          O5 1.942       .   S
Zn2          O7 1.922       .   S
Zn2          O9 1.922       .   S
Zn2         O13 1.922       .   S
Zn3          O5 1.942       .   S
Zn3          O8 1.922       .   S
Zn3         O11 1.922       .   S
Zn3         O14 1.922       .   S
Zn4          O5 1.942       .   S
Zn4         O12 1.922       .   S
Zn4         O15 1.922       .   S
Zn4         O16 1.922       .   S
O6          C18 1.304       .   A
O7          C19 1.304       .   A
O8          C20 1.304       .   A
O9          C18 1.304       .   A
O10         C20 1.304       .   A
O11         C19 1.304       .   A
O12         C21 1.304       .   A
O13         C22 1.304       .   A
O14         C21 1.304       .   A
O15         C22 1.304       .   A
O16         C23 1.304       .   A
O17         C23 1.304       .   A
C18        C185 1.540       .   S
C19        N262 1.540       .   S
C20        C315 1.540       .   S
C21        N236 1.540       .   S
C22        N314 1.540       .   S
C23        N288 1.540       .   S
Zn24        O28 1.942       .   S
Zn24        O29 1.922       .   S
Zn24        O33 1.922       .   S
Zn24        O40 1.922       .   S
Zn25        O28 1.942       .   S
Zn25        O30 1.922       .   S
Zn25        O32 1.922       .   S
Zn25        O36 1.922       .   S
Zn26        O28 1.942       .   S
Zn26        O31 1.922       .   S
Zn26        O34 1.922       .   S
Zn26        O37 1.922       .   S
Zn27        O28 1.942       .   S
Zn27        O35 1.922       .   S
Zn27        O38 1.922       .   S
Zn27        O39 1.922       .   S
O29         C41 1.304       .   A
O30         C42 1.304       .   A
O31         C43 1.304       .   A
O32         C41 1.304       .   A
O33         C43 1.304       .   A
O34         C42 1.304       .   A
O35         C44 1.304       .   A
O36         C45 1.304       .   A
O37         C44 1.304       .   A
O38         C45 1.304       .   A
O39         C46 1.304       .   A
O40         C46 1.304       .   A
C41        N210 1.540   1_655   S
C42        N366 1.540       .   S
C43        N418 1.540       .   S
C44        C211 1.540   1_656   S
C45        C419 1.540       .   S
C46        C367 1.540       .   S
Zn47        O51 1.942       .   S
Zn47        O52 1.922       .   S
Zn47        O56 1.922       .   S
Zn47        O63 1.922       .   S
Zn48        O51 1.942       .   S
Zn48        O53 1.922       .   S
Zn48        O55 1.922       .   S
Zn48        O59 1.922       .   S
Zn49        O51 1.942       .   S
Zn49        O54 1.922       .   S
Zn49        O57 1.922       .   S
Zn49        O60 1.922       .   S
Zn50        O51 1.942       .   S
Zn50        O58 1.922       .   S
Zn50        O61 1.922       .   S
Zn50        O62 1.922       .   S
O52         C64 1.304       .   A
O53         C65 1.304       .   A
O54         C66 1.304       .   A
O55         C64 1.304       .   A
O56         C66 1.304       .   A
O57         C65 1.304       .   A
O58         C67 1.304       .   A
O59         C68 1.304       .   A
O60         C67 1.304       .   A
O61         C68 1.304       .   A
O62         C69 1.304       .   A
O63         C69 1.304       .   A
C64        C289 1.540   1_655   S
C65        N548 1.540       .   S
C66        C445 1.540       .   S
C67        N340 1.540   1_665   S
C68        C471 1.540       .   S
C69        C497 1.540       .   S
Zn70        O74 1.942       .   S
Zn70        O75 1.922       .   S
Zn70        O79 1.922       .   S
Zn70        O86 1.922       .   S
Zn71        O74 1.942       .   S
Zn71        O76 1.922       .   S
Zn71        O78 1.922       .   S
Zn71        O82 1.922       .   S
Zn72        O74 1.942       .   S
Zn72        O77 1.922       .   S
Zn72        O80 1.922       .   S
Zn72        O83 1.922       .   S
Zn73        O74 1.942       .   S
Zn73        O81 1.922       .   S
Zn73        O84 1.922       .   S
Zn73        O85 1.922       .   S
O75         C87 1.304       .   A
O76         C88 1.304       .   A
O77         C89 1.304       .   A
O78         C87 1.304       .   A
O79         C89 1.304       .   A
O80         C88 1.304       .   A
O81         C90 1.304       .   A
O82         C91 1.304       .   A
O83         C90 1.304       .   A
O84         C91 1.304       .   A
O85         C92 1.304       .   A
O86         C92 1.304       .   A
C87        N470 1.540       .   S
C88        C549 1.540       .   S
C89        N444 1.540   1_565   S
C90        N496 1.540   1_556   S
C91        C393 1.540       .   S
C92        C575 1.540       .   S
Zn93        O97 1.942       .   S
Zn93        O98 1.922       .   S
Zn93       O102 1.922       .   S
Zn93       O109 1.922       .   S
Zn94        O97 1.942       .   S
Zn94        O99 1.922       .   S
Zn94       O101 1.922       .   S
Zn94       O105 1.922       .   S
Zn95        O97 1.942       .   S
Zn95       O100 1.922       .   S
Zn95       O103 1.922       .   S
Zn95       O106 1.922       .   S
Zn96        O97 1.942       .   S
Zn96       O104 1.922       .   S
Zn96       O107 1.922       .   S
Zn96       O108 1.922       .   S
O98        C110 1.304       .   A
O99        C111 1.304       .   A
O100       C112 1.304       .   A
O101       C110 1.304       .   A
O102       C112 1.304       .   A
O103       C111 1.304       .   A
O104       C113 1.304       .   A
O105       C114 1.304       .   A
O106       C113 1.304       .   A
O107       C114 1.304       .   A
O108       C115 1.304       .   A
O109       C115 1.304       .   A
C110       C237 1.540   1_565   S
C111       C601 1.540       .   S
C112       C679 1.540       .   S
C113       C263 1.540   1_665   S
C114       C653 1.540       .   S
C115       C627 1.540       .   S
Zn116      O120 1.942       .   S
Zn116      O121 1.922       .   S
Zn116      O125 1.922       .   S
Zn116      O132 1.922       .   S
Zn117      O120 1.942       .   S
Zn117      O122 1.922       .   S
Zn117      O124 1.922       .   S
Zn117      O128 1.922       .   S
Zn118      O120 1.942       .   S
Zn118      O123 1.922       .   S
Zn118      O126 1.922       .   S
Zn118      O129 1.922       .   S
Zn119      O120 1.942       .   S
Zn119      O127 1.922       .   S
Zn119      O130 1.922       .   S
Zn119      O131 1.922       .   S
O121       C133 1.304       .   A
O122       C134 1.304       .   A
O123       C135 1.304       .   A
O124       C133 1.304       .   A
O125       C135 1.304       .   A
O126       C134 1.304       .   A
O127       C136 1.304       .   A
O128       C137 1.304       .   A
O129       C136 1.304       .   A
O130       C137 1.304       .   A
O131       C138 1.304       .   A
O132       C138 1.304       .   A
C133       C341 1.540   1_465   S
C134       C705 1.540       .   S
C135       N652 1.540   1_556   S
C136       N392 1.540   1_565   S
C137       N626 1.540       .   S
C138       C731 1.540       .   S
Zn139      O143 1.942       .   S
Zn139      O144 1.922       .   S
Zn139      O148 1.922       .   S
Zn139      O155 1.922       .   S
Zn140      O143 1.942       .   S
Zn140      O145 1.922       .   S
Zn140      O147 1.922       .   S
Zn140      O151 1.922       .   S
Zn141      O143 1.942       .   S
Zn141      O146 1.922       .   S
Zn141      O149 1.922       .   S
Zn141      O152 1.922       .   S
Zn142      O143 1.942       .   S
Zn142      O150 1.922       .   S
Zn142      O153 1.922       .   S
Zn142      O154 1.922       .   S
O144       C156 1.304       .   A
O145       C157 1.304       .   A
O146       C158 1.304       .   A
O147       C156 1.304       .   A
O148       C158 1.304       .   A
O149       C157 1.304       .   A
O150       C159 1.304       .   A
O151       C160 1.304       .   A
O152       C159 1.304       .   A
O153       C160 1.304       .   A
O154       C161 1.304       .   A
O155       C161 1.304       .   A
C156       N522 1.540   1_455   S
C157       N678 1.540   1_545   S
C158       N808 1.540       .   S
C159       C523 1.540       .   S
C160       C757 1.540       .   S
C161       N704 1.540       .   S
Zn162      O166 1.942       .   S
Zn162      O167 1.922       .   S
Zn162      O171 1.922       .   S
Zn162      O178 1.922       .   S
Zn163      O166 1.942       .   S
Zn163      O168 1.922       .   S
Zn163      O170 1.922       .   S
Zn163      O174 1.922       .   S
Zn164      O166 1.942       .   S
Zn164      O169 1.922       .   S
Zn164      O172 1.922       .   S
Zn164      O175 1.922       .   S
Zn165      O166 1.942       .   S
Zn165      O173 1.922       .   S
Zn165      O176 1.922       .   S
Zn165      O177 1.922       .   S
O167       C179 1.304       .   A
O168       C180 1.304       .   A
O169       C181 1.304       .   A
O170       C179 1.304       .   A
O171       C181 1.304       .   A
O172       C180 1.304       .   A
O173       C182 1.304       .   A
O174       C183 1.304       .   A
O175       C182 1.304       .   A
O176       C183 1.304       .   A
O177       C184 1.304       .   A
O178       C184 1.304       .   A
C179       N574 1.540   1_455   S
C180       C783 1.540   1_556   S
C181       N730 1.540   1_545   S
C182       N600 1.540       .   S
C183       N756 1.540       .   S
C184       N782 1.540       .   S
C783       C784 0.029       .   A
C783       C788 0.029       .   A
C784       C785 0.029       .   A
C784       N791 0.029       .   A
C785       C786 0.029       .   A
C785       H790 0.023       .   A
C786       C787 0.029       .   A
C786       C789 0.029       .   A
C787       C788 0.028       .   A
C787       H793 0.023       .   A
C788       H792 0.023       .   A
C789       C794 0.029       .   A
C789       C798 0.029       .   A
N791       H804 0.022       .   A
N791       H805 0.022       .   A
C794       C795 0.028       .   A
C794       H801 0.023       .   A
C795       C796 0.028       .   A
C795       H800 0.023       .   A
C796       C797 0.028       .   A
C796       N799 0.027       .   A
C797       C798 0.028       .   A
C797       H803 0.023       .   A
C798       H802 0.023       .   A
N799       N806 0.027       .   A
N806       N807 0.032       .   A
N807       N808 0.027       .   A
C757       C758 0.029       .   A
C757       C762 0.029       .   A
C758       C759 0.029       .   A
C758       N765 0.029       .   A
C759       C760 0.029       .   A
C759       H764 0.023       .   A
C760       C761 0.029       .   A
C760       C763 0.029       .   A
C761       C762 0.028       .   A
C761       H767 0.023       .   A
C762       H766 0.023       .   A
C763       C768 0.029       .   A
C763       C772 0.029       .   A
N765       H778 0.022       .   A
N765       H779 0.022       .   A
C768       C769 0.028       .   A
C768       H775 0.023       .   A
C769       C770 0.028       .   A
C769       H774 0.023       .   A
C770       C771 0.028       .   A
C770       N773 0.027       .   A
C771       C772 0.028       .   A
C771       H777 0.023       .   A
C772       H776 0.023       .   A
N773       N780 0.027       .   A
N780       N781 0.032       .   A
N781       N782 0.027       .   A
C731       C732 0.029       .   A
C731       C736 0.029       .   A
C732       C733 0.029       .   A
C732       N739 0.029       .   A
C733       C734 0.029       .   A
C733       H738 0.023       .   A
C734       C735 0.029       .   A
C734       C737 0.029       .   A
C735       C736 0.028       .   A
C735       H741 0.023       .   A
C736       H740 0.023       .   A
C737       C742 0.029       .   A
C737       C746 0.029       .   A
N739       H752 0.022       .   A
N739       H753 0.022       .   A
C742       C743 0.028       .   A
C742       H749 0.023       .   A
C743       C744 0.028       .   A
C743       H748 0.023       .   A
C744       C745 0.028       .   A
C744       N747 0.027       .   A
C745       C746 0.028       .   A
C745       H751 0.023       .   A
C746       H750 0.023       .   A
N747       N754 0.027       .   A
N754       N755 0.032       .   A
N755       N756 0.027       .   A
C705       C706 0.029       .   A
C705       C710 0.029       .   A
C706       C707 0.029       .   A
C706       N713 0.029       .   A
C707       C708 0.029       .   A
C707       H712 0.023       .   A
C708       C709 0.029       .   A
C708       C711 0.029       .   A
C709       C710 0.028       .   A
C709       H715 0.023       .   A
C710       H714 0.023       .   A
C711       C716 0.029       .   A
C711       C720 0.029       .   A
N713       H726 0.022       .   A
N713       H727 0.022       .   A
C716       C717 0.028       .   A
C716       H723 0.023       .   A
C717       C718 0.028       .   A
C717       H722 0.023       .   A
C718       C719 0.028       .   A
C718       N721 0.027       .   A
C719       C720 0.028       .   A
C719       H725 0.023       .   A
C720       H724 0.023       .   A
N721       N728 0.027       .   A
N728       N729 0.032       .   A
N729       N730 0.027       .   A
C679       C680 0.029       .   A
C679       C684 0.029       .   A
C680       C681 0.029       .   A
C680       N687 0.029       .   A
C681       C682 0.029       .   A
C681       H686 0.023       .   A
C682       C683 0.029       .   A
C682       C685 0.029       .   A
C683       C684 0.028       .   A
C683       H689 0.023       .   A
C684       H688 0.023       .   A
C685       C690 0.029       .   A
C685       C694 0.029       .   A
N687       H700 0.022       .   A
N687       H701 0.022       .   A
C690       C691 0.028       .   A
C690       H697 0.023       .   A
C691       C692 0.028       .   A
C691       H696 0.023       .   A
C692       C693 0.028       .   A
C692       N695 0.027       .   A
C693       C694 0.028       .   A
C693       H699 0.023       .   A
C694       H698 0.023       .   A
N695       N702 0.027       .   A
N702       N703 0.032       .   A
N703       N704 0.027       .   A
C653       C654 0.029       .   A
C653       C658 0.029       .   A
C654       C655 0.029       .   A
C654       N661 0.029       .   A
C655       C656 0.029       .   A
C655       H660 0.023       .   A
C656       C657 0.029       .   A
C656       C659 0.029       .   A
C657       C658 0.028       .   A
C657       H663 0.023       .   A
C658       H662 0.023       .   A
C659       C664 0.029       .   A
C659       C668 0.029       .   A
N661       H674 0.022       .   A
N661       H675 0.022       .   A
C664       C665 0.028       .   A
C664       H671 0.023       .   A
C665       C666 0.028       .   A
C665       H670 0.023       .   A
C666       C667 0.028       .   A
C666       N669 0.027       .   A
C667       C668 0.028       .   A
C667       H673 0.023       .   A
C668       H672 0.023       .   A
N669       N676 0.027       .   A
N676       N677 0.032       .   A
N677       N678 0.027       .   A
C627       C628 0.029       .   A
C627       C632 0.029       .   A
C628       C629 0.029       .   A
C628       N635 0.029       .   A
C629       C630 0.029       .   A
C629       H634 0.023       .   A
C630       C631 0.029       .   A
C630       C633 0.029       .   A
C631       C632 0.028       .   A
C631       H637 0.023       .   A
C632       H636 0.023       .   A
C633       C638 0.029       .   A
C633       C642 0.029       .   A
N635       H648 0.022       .   A
N635       H649 0.022       .   A
C638       C639 0.028       .   A
C638       H645 0.023       .   A
C639       C640 0.028       .   A
C639       H644 0.023       .   A
C640       C641 0.028       .   A
C640       N643 0.027       .   A
C641       C642 0.028       .   A
C641       H647 0.023       .   A
C642       H646 0.023       .   A
N643       N650 0.027       .   A
N650       N651 0.032       .   A
N651       N652 0.027       .   A
C601       C602 0.029       .   A
C601       C606 0.029       .   A
C602       C603 0.029       .   A
C602       N609 0.029       .   A
C603       C604 0.029       .   A
C603       H608 0.023       .   A
C604       C605 0.029       .   A
C604       C607 0.029       .   A
C605       C606 0.028       .   A
C605       H611 0.023       .   A
C606       H610 0.023       .   A
C607       C612 0.029       .   A
C607       C616 0.029       .   A
N609       H622 0.022       .   A
N609       H623 0.022       .   A
C612       C613 0.028       .   A
C612       H619 0.023       .   A
C613       C614 0.028       .   A
C613       H618 0.023       .   A
C614       C615 0.028       .   A
C614       N617 0.027       .   A
C615       C616 0.028       .   A
C615       H621 0.023       .   A
C616       H620 0.023       .   A
N617       N624 0.027       .   A
N624       N625 0.032       .   A
N625       N626 0.027       .   A
C575       C576 0.029       .   A
C575       C580 0.029       .   A
C576       C577 0.029       .   A
C576       N583 0.029       .   A
C577       C578 0.029       .   A
C577       H582 0.023       .   A
C578       C579 0.029       .   A
C578       C581 0.029       .   A
C579       C580 0.028       .   A
C579       H585 0.023       .   A
C580       H584 0.023       .   A
C581       C586 0.029       .   A
C581       C590 0.029       .   A
N583       H596 0.022       .   A
N583       H597 0.022       .   A
C586       C587 0.028       .   A
C586       H593 0.023       .   A
C587       C588 0.028       .   A
C587       H592 0.023       .   A
C588       C589 0.028       .   A
C588       N591 0.027       .   A
C589       C590 0.028       .   A
C589       H595 0.023       .   A
C590       H594 0.023       .   A
N591       N598 0.027       .   A
N598       N599 0.032       .   A
N599       N600 0.027       .   A
C549       C550 0.029       .   A
C549       C554 0.029       .   A
C550       C551 0.029       .   A
C550       N557 0.029       .   A
C551       C552 0.029       .   A
C551       H556 0.023       .   A
C552       C553 0.029       .   A
C552       C555 0.029       .   A
C553       C554 0.028       .   A
C553       H559 0.023       .   A
C554       H558 0.023       .   A
C555       C560 0.029       .   A
C555       C564 0.029       .   A
N557       H570 0.022       .   A
N557       H571 0.022       .   A
C560       C561 0.028       .   A
C560       H567 0.023       .   A
C561       C562 0.028       .   A
C561       H566 0.023       .   A
C562       C563 0.028       .   A
C562       N565 0.027       .   A
C563       C564 0.028       .   A
C563       H569 0.023       .   A
C564       H568 0.023       .   A
N565       N572 0.027       .   A
N572       N573 0.032       .   A
N573       N574 0.027       .   A
C523       C524 0.029       .   A
C523       C528 0.029       .   A
C524       C525 0.029       .   A
C524       N531 0.029       .   A
C525       C526 0.029       .   A
C525       H530 0.023       .   A
C526       C527 0.029       .   A
C526       C529 0.029       .   A
C527       C528 0.028       .   A
C527       H533 0.023       .   A
C528       H532 0.023       .   A
C529       C534 0.029       .   A
C529       C538 0.029       .   A
N531       H544 0.022       .   A
N531       H545 0.022       .   A
C534       C535 0.028       .   A
C534       H541 0.023       .   A
C535       C536 0.028       .   A
C535       H540 0.023       .   A
C536       C537 0.028       .   A
C536       N539 0.027       .   A
C537       C538 0.028       .   A
C537       H543 0.023       .   A
C538       H542 0.023       .   A
N539       N546 0.027       .   A
N546       N547 0.032       .   A
N547       N548 0.027       .   A
C497       C498 0.029       .   A
C497       C502 0.029       .   A
C498       C499 0.029       .   A
C498       N505 0.029       .   A
C499       C500 0.029       .   A
C499       H504 0.023       .   A
C500       C501 0.029       .   A
C500       C503 0.029       .   A
C501       C502 0.028       .   A
C501       H507 0.023       .   A
C502       H506 0.023       .   A
C503       C508 0.029       .   A
C503       C512 0.029       .   A
N505       H518 0.022       .   A
N505       H519 0.022       .   A
C508       C509 0.028       .   A
C508       H515 0.023       .   A
C509       C510 0.028       .   A
C509       H514 0.023       .   A
C510       C511 0.028       .   A
C510       N513 0.027       .   A
C511       C512 0.028       .   A
C511       H517 0.023       .   A
C512       H516 0.023       .   A
N513       N520 0.027       .   A
N520       N521 0.032       .   A
N521       N522 0.027       .   A
C471       C472 0.029       .   A
C471       C476 0.029       .   A
C472       C473 0.029       .   A
C472       N479 0.029       .   A
C473       C474 0.029       .   A
C473       H478 0.023       .   A
C474       C475 0.029       .   A
C474       C477 0.029       .   A
C475       C476 0.028       .   A
C475       H481 0.023       .   A
C476       H480 0.023       .   A
C477       C482 0.029       .   A
C477       C486 0.029       .   A
N479       H492 0.022       .   A
N479       H493 0.022       .   A
C482       C483 0.028       .   A
C482       H489 0.023       .   A
C483       C484 0.028       .   A
C483       H488 0.023       .   A
C484       C485 0.028       .   A
C484       N487 0.027       .   A
C485       C486 0.028       .   A
C485       H491 0.023       .   A
C486       H490 0.023       .   A
N487       N494 0.027       .   A
N494       N495 0.032       .   A
N495       N496 0.027       .   A
C445       C446 0.029       .   A
C445       C450 0.029       .   A
C446       C447 0.029       .   A
C446       N453 0.029       .   A
C447       C448 0.029       .   A
C447       H452 0.023       .   A
C448       C449 0.029       .   A
C448       C451 0.029       .   A
C449       C450 0.028       .   A
C449       H455 0.023       .   A
C450       H454 0.023       .   A
C451       C456 0.029       .   A
C451       C460 0.029       .   A
N453       H466 0.022       .   A
N453       H467 0.022       .   A
C456       C457 0.028       .   A
C456       H463 0.023       .   A
C457       C458 0.028       .   A
C457       H462 0.023       .   A
C458       C459 0.028       .   A
C458       N461 0.027       .   A
C459       C460 0.028       .   A
C459       H465 0.023       .   A
C460       H464 0.023       .   A
N461       N468 0.027       .   A
N468       N469 0.032       .   A
N469       N470 0.027       .   A
C419       C420 0.029       .   A
C419       C424 0.029       .   A
C420       C421 0.029       .   A
C420       N427 0.029       .   A
C421       C422 0.029       .   A
C421       H426 0.023       .   A
C422       C423 0.029       .   A
C422       C425 0.029       .   A
C423       C424 0.028       .   A
C423       H429 0.023       .   A
C424       H428 0.023       .   A
C425       C430 0.029       .   A
C425       C434 0.029       .   A
N427       H440 0.022       .   A
N427       H441 0.022       .   A
C430       C431 0.028       .   A
C430       H437 0.023       .   A
C431       C432 0.028       .   A
C431       H436 0.023       .   A
C432       C433 0.028       .   A
C432       N435 0.027       .   A
C433       C434 0.028       .   A
C433       H439 0.023       .   A
C434       H438 0.023       .   A
N435       N442 0.027       .   A
N442       N443 0.032       .   A
N443       N444 0.027       .   A
C393       C394 0.029       .   A
C393       C398 0.029       .   A
C394       C395 0.029       .   A
C394       N401 0.029       .   A
C395       C396 0.029       .   A
C395       H400 0.023       .   A
C396       C397 0.029       .   A
C396       C399 0.029       .   A
C397       C398 0.028       .   A
C397       H403 0.023       .   A
C398       H402 0.023       .   A
C399       C404 0.029       .   A
C399       C408 0.029       .   A
N401       H414 0.022       .   A
N401       H415 0.022       .   A
C404       C405 0.028       .   A
C404       H411 0.023       .   A
C405       C406 0.028       .   A
C405       H410 0.023       .   A
C406       C407 0.028       .   A
C406       N409 0.027       .   A
C407       C408 0.028       .   A
C407       H413 0.023       .   A
C408       H412 0.023       .   A
N409       N416 0.027       .   A
N416       N417 0.032       .   A
N417       N418 0.027       .   A
C367       C368 0.029       .   A
C367       C372 0.029       .   A
C368       C369 0.029       .   A
C368       N375 0.029       .   A
C369       C370 0.029       .   A
C369       H374 0.023       .   A
C370       C371 0.029       .   A
C370       C373 0.029       .   A
C371       C372 0.028       .   A
C371       H377 0.023       .   A
C372       H376 0.023       .   A
C373       C378 0.029       .   A
C373       C382 0.029       .   A
N375       H388 0.022       .   A
N375       H389 0.022       .   A
C378       C379 0.028       .   A
C378       H385 0.023       .   A
C379       C380 0.028       .   A
C379       H384 0.023       .   A
C380       C381 0.028       .   A
C380       N383 0.027       .   A
C381       C382 0.028       .   A
C381       H387 0.023       .   A
C382       H386 0.023       .   A
N383       N390 0.027       .   A
N390       N391 0.032       .   A
N391       N392 0.027       .   A
C341       C342 0.029       .   A
C341       C346 0.029       .   A
C342       C343 0.029       .   A
C342       N349 0.029       .   A
C343       C344 0.029       .   A
C343       H348 0.023       .   A
C344       C345 0.029       .   A
C344       C347 0.029       .   A
C345       C346 0.028       .   A
C345       H351 0.023       .   A
C346       H350 0.023       .   A
C347       C352 0.029       .   A
C347       C356 0.029       .   A
N349       H362 0.022       .   A
N349       H363 0.022       .   A
C352       C353 0.028       .   A
C352       H359 0.023       .   A
C353       C354 0.028       .   A
C353       H358 0.023       .   A
C354       C355 0.028       .   A
C354       N357 0.027       .   A
C355       C356 0.028       .   A
C355       H361 0.023       .   A
C356       H360 0.023       .   A
N357       N364 0.027       .   A
N364       N365 0.032       .   A
N365       N366 0.027       .   A
C315       C316 0.029       .   A
C315       C320 0.029       .   A
C316       C317 0.029       .   A
C316       N323 0.029       .   A
C317       C318 0.029       .   A
C317       H322 0.023       .   A
C318       C319 0.029       .   A
C318       C321 0.029       .   A
C319       C320 0.028       .   A
C319       H325 0.023       .   A
C320       H324 0.023       .   A
C321       C326 0.029       .   A
C321       C330 0.029       .   A
N323       H336 0.022       .   A
N323       H337 0.022       .   A
C326       C327 0.028       .   A
C326       H333 0.023       .   A
C327       C328 0.028       .   A
C327       H332 0.023       .   A
C328       C329 0.028       .   A
C328       N331 0.027       .   A
C329       C330 0.028       .   A
C329       H335 0.023       .   A
C330       H334 0.023       .   A
N331       N338 0.027       .   A
N338       N339 0.032       .   A
N339       N340 0.027       .   A
C289       C290 0.029       .   A
C289       C294 0.029       .   A
C290       C291 0.029       .   A
C290       N297 0.029       .   A
C291       C292 0.029       .   A
C291       H296 0.023       .   A
C292       C293 0.029       .   A
C292       C295 0.029       .   A
C293       C294 0.028       .   A
C293       H299 0.023       .   A
C294       H298 0.023       .   A
C295       C300 0.029       .   A
C295       C304 0.029       .   A
N297       H310 0.022       .   A
N297       H311 0.022       .   A
C300       C301 0.028       .   A
C300       H307 0.023       .   A
C301       C302 0.028       .   A
C301       H306 0.023       .   A
C302       C303 0.028       .   A
C302       N305 0.027       .   A
C303       C304 0.028       .   A
C303       H309 0.023       .   A
C304       H308 0.023       .   A
N305       N312 0.027       .   A
N312       N313 0.032       .   A
N313       N314 0.027       .   A
C263       C264 0.029       .   A
C263       C268 0.029       .   A
C264       C265 0.029       .   A
C264       N271 0.029       .   A
C265       C266 0.029       .   A
C265       H270 0.023       .   A
C266       C267 0.029       .   A
C266       C269 0.029       .   A
C267       C268 0.028       .   A
C267       H273 0.023       .   A
C268       H272 0.023       .   A
C269       C274 0.029       .   A
C269       C278 0.029       .   A
N271       H284 0.022       .   A
N271       H285 0.022       .   A
C274       C275 0.028       .   A
C274       H281 0.023       .   A
C275       C276 0.028       .   A
C275       H280 0.023       .   A
C276       C277 0.028       .   A
C276       N279 0.027       .   A
C277       C278 0.028       .   A
C277       H283 0.023       .   A
C278       H282 0.023       .   A
N279       N286 0.027       .   A
N286       N287 0.032       .   A
N287       N288 0.027       .   A
C237       C238 0.029       .   A
C237       C242 0.029       .   A
C238       C239 0.029       .   A
C238       N245 0.029       .   A
C239       C240 0.029       .   A
C239       H244 0.023       .   A
C240       C241 0.029       .   A
C240       C243 0.029       .   A
C241       C242 0.028       .   A
C241       H247 0.023       .   A
C242       H246 0.023       .   A
C243       C248 0.029       .   A
C243       C252 0.029       .   A
N245       H258 0.022       .   A
N245       H259 0.022       .   A
C248       C249 0.028       .   A
C248       H255 0.023       .   A
C249       C250 0.028       .   A
C249       H254 0.023       .   A
C250       C251 0.028       .   A
C250       N253 0.027       .   A
C251       C252 0.028       .   A
C251       H257 0.023       .   A
C252       H256 0.023       .   A
N253       N260 0.027       .   A
N260       N261 0.032       .   A
N261       N262 0.027       .   A
C211       C212 0.029       .   A
C211       C216 0.029       .   A
C212       C213 0.029       .   A
C212       N219 0.029       .   A
C213       C214 0.029       .   A
C213       H218 0.023       .   A
C214       C215 0.029       .   A
C214       C217 0.029       .   A
C215       C216 0.028       .   A
C215       H221 0.023       .   A
C216       H220 0.023       .   A
C217       C222 0.029       .   A
C217       C226 0.029       .   A
N219       H232 0.022       .   A
N219       H233 0.022       .   A
C222       C223 0.028       .   A
C222       H229 0.023       .   A
C223       C224 0.028       .   A
C223       H228 0.023       .   A
C224       C225 0.028       .   A
C224       N227 0.027       .   A
C225       C226 0.028       .   A
C225       H231 0.023       .   A
C226       H230 0.023       .   A
N227       N234 0.027       .   A
N234       N235 0.032       .   A
N235       N236 0.027       .   A
C185       C186 0.029       .   A
C185       C190 0.029       .   A
C186       C187 0.029       .   A
C186       N193 0.029       .   A
C187       C188 0.029       .   A
C187       H192 0.023       .   A
C188       C189 0.029       .   A
C188       C191 0.029       .   A
C189       C190 0.028       .   A
C189       H195 0.023       .   A
C190       H194 0.023       .   A
C191       C196 0.029       .   A
C191       C200 0.029       .   A
N193       H206 0.022       .   A
N193       H207 0.022       .   A
C196       C197 0.028       .   A
C196       H203 0.023       .   A
C197       C198 0.028       .   A
C197       H202 0.023       .   A
C198       C199 0.028       .   A
C198       N201 0.027       .   A
C199       C200 0.028       .   A
C199       H205 0.023       .   A
C200       H204 0.023       .   A
N201       N208 0.027       .   A
N208       N209 0.032       .   A
N209       N210 0.027       .   A
