data_pcu_v1-6c_Zn_1_Ch_1-38_fer_tobacco
_audit_creation_date              2021-02-03
_audit_creation_method            'tobacco_3.0'
_symmetry_space_group_name_H-M    'P1'
_symmetry_Int_Tables_number       1
_symmetry_cell_setting            triclinic
loop_
_symmetry_equiv_pos_as_xyz
  x,y,z
_cell_length_a                    31.232162747363013
_cell_length_b                    31.232162747363013
_cell_length_c                    31.232162747363013
_cell_angle_alpha                 90.0
_cell_angle_beta                  90.0
_cell_angle_gamma                 90.0
loop_
_atom_site_label
_atom_site_type_symbol
_atom_site_fract_x
_atom_site_fract_y
_atom_site_fract_z
_atom_site_charge
Zn1       Zn   -0.0358988908   -0.0358988908    0.0358988908          1.4972
Zn2       Zn    0.0358988908    0.0358988908    0.0358988908          1.4936
Zn3       Zn    0.0358988908   -0.0358988908   -0.0358988908          1.4911
Zn4       Zn   -0.0358988908    0.0358988908   -0.0358988908          1.4948
O5         O    0.0000000000    0.0000000000    0.0000000000         -2.3123
O6         O   -0.0263830592   -0.0263830592    0.0959459652         -1.2186
O7         O    0.0959459652    0.0263830592    0.0263830592         -1.2168
O8         O    0.0263830592   -0.0959459652   -0.0263830592          -1.212
O9         O    0.0263830592    0.0263830592    0.0959459652         -1.2188
O10        O   -0.0263830592   -0.0959459652    0.0263830592         -1.2147
O11        O    0.0959459652   -0.0263830592   -0.0263830592         -1.2206
O12        O   -0.0263830592    0.0263830592   -0.0959459652         -1.2145
O13        O    0.0263830592    0.0959459652    0.0263830592         -1.2221
O14        O    0.0263830592   -0.0263830592   -0.0959459652          -1.216
O15        O   -0.0263830592    0.0959459652   -0.0263830592         -1.2206
O16        O   -0.0959459652    0.0263830592   -0.0263830592         -1.2197
O17        O   -0.0959459652   -0.0263830592    0.0263830592         -1.2176
C18        C   -0.0000000000   -0.0000000000    0.1147150785          0.3003
C19        C    0.1147150785   -0.0000000000   -0.0000000000          0.3052
C20        C   -0.0000000000   -0.1147150785    0.0000000000          0.2948
C21        C    0.0000000000    0.0000000000   -0.1147150785          0.2986
C22        C    0.0000000000    0.1147150785   -0.0000000000          0.3099
C23        C   -0.1147150785    0.0000000000    0.0000000000          0.3004
Zn24      Zn    0.9641011092    0.0358988908    0.4641011092          1.4972
Zn25      Zn    1.0358988908   -0.0358988908    0.4641011092          1.4936
Zn26      Zn    1.0358988908    0.0358988908    0.5358988908          1.4911
Zn27      Zn    0.9641011092   -0.0358988908    0.5358988908          1.4948
O28        O    1.0000000000    0.0000000000    0.5000000000         -2.3123
O29        O    0.9736169408    0.0263830592    0.4040540348         -1.2186
O30        O    1.0959459652   -0.0263830592    0.4736169408         -1.2168
O31        O    1.0263830592    0.0959459652    0.5263830592          -1.212
O32        O    1.0263830592   -0.0263830592    0.4040540348         -1.2188
O33        O    0.9736169408    0.0959459652    0.4736169408         -1.2147
O34        O    1.0959459652    0.0263830592    0.5263830592         -1.2206
O35        O    0.9736169408   -0.0263830592    0.5959459652         -1.2145
O36        O    1.0263830592   -0.0959459652    0.4736169408         -1.2221
O37        O    1.0263830592    0.0263830592    0.5959459652          -1.216
O38        O    0.9736169408   -0.0959459652    0.5263830592         -1.2206
O39        O    0.9040540348   -0.0263830592    0.5263830592         -1.2197
O40        O    0.9040540348    0.0263830592    0.4736169408         -1.2176
C41        C    1.0000000000    0.0000000000    0.3852849215          0.3003
C42        C    1.1147150785    0.0000000000    0.5000000000          0.3052
C43        C    1.0000000000    0.1147150785    0.5000000000          0.2948
C44        C    1.0000000000    0.0000000000    0.6147150785          0.2986
C45        C    1.0000000000   -0.1147150785    0.5000000000          0.3099
C46        C    0.8852849215    0.0000000000    0.5000000000          0.3004
Zn47      Zn    1.0358988908    0.4641011092   -0.0358988908          1.4972
Zn48      Zn    0.9641011092    0.4641011092    0.0358988908          1.4936
Zn49      Zn    1.0358988908    0.5358988908    0.0358988908          1.4911
Zn50      Zn    0.9641011092    0.5358988908   -0.0358988908          1.4948
O51        O    1.0000000000    0.5000000000    0.0000000000         -2.3123
O52        O    1.0263830592    0.4040540348   -0.0263830592         -1.2186
O53        O    0.9736169408    0.4736169408    0.0959459652         -1.2168
O54        O    1.0959459652    0.5263830592    0.0263830592          -1.212
O55        O    0.9736169408    0.4040540348    0.0263830592         -1.2188
O56        O    1.0959459652    0.4736169408   -0.0263830592         -1.2147
O57        O    1.0263830592    0.5263830592    0.0959459652         -1.2206
O58        O    0.9736169408    0.5959459652   -0.0263830592         -1.2145
O59        O    0.9040540348    0.4736169408    0.0263830592         -1.2221
O60        O    1.0263830592    0.5959459652    0.0263830592          -1.216
O61        O    0.9040540348    0.5263830592   -0.0263830592         -1.2206
O62        O    0.9736169408    0.5263830592   -0.0959459652         -1.2197
O63        O    1.0263830592    0.4736169408   -0.0959459652         -1.2176
C64        C    1.0000000000    0.3852849215    0.0000000000          0.3003
C65        C    1.0000000000    0.5000000000    0.1147150785          0.3052
C66        C    1.1147150785    0.5000000000    0.0000000000          0.2948
C67        C    1.0000000000    0.6147150785    0.0000000000          0.2986
C68        C    0.8852849215    0.5000000000    0.0000000000          0.3099
C69        C    1.0000000000    0.5000000000   -0.1147150785          0.3004
Zn70      Zn    0.9641011092    0.4641011092    0.5358988908          1.4972
Zn71      Zn    1.0358988908    0.4641011092    0.4641011092          1.4936
Zn72      Zn    0.9641011092    0.5358988908    0.4641011092          1.4911
Zn73      Zn    1.0358988908    0.5358988908    0.5358988908          1.4948
O74        O    1.0000000000    0.5000000000    0.5000000000         -2.3123
O75        O    0.9736169408    0.4040540348    0.5263830592         -1.2186
O76        O    1.0263830592    0.4736169408    0.4040540348         -1.2168
O77        O    0.9040540348    0.5263830592    0.4736169408          -1.212
O78        O    1.0263830592    0.4040540348    0.4736169408         -1.2188
O79        O    0.9040540348    0.4736169408    0.5263830592         -1.2147
O80        O    0.9736169408    0.5263830592    0.4040540348         -1.2206
O81        O    1.0263830592    0.5959459652    0.5263830592         -1.2145
O82        O    1.0959459652    0.4736169408    0.4736169408         -1.2221
O83        O    0.9736169408    0.5959459652    0.4736169408          -1.216
O84        O    1.0959459652    0.5263830592    0.5263830592         -1.2206
O85        O    1.0263830592    0.5263830592    0.5959459652         -1.2197
O86        O    0.9736169408    0.4736169408    0.5959459652         -1.2176
C87        C    1.0000000000    0.3852849215    0.5000000000          0.3003
C88        C    1.0000000000    0.5000000000    0.3852849215          0.3052
C89        C    0.8852849215    0.5000000000    0.5000000000          0.2948
C90        C    1.0000000000    0.6147150785    0.5000000000          0.2986
C91        C    1.1147150785    0.5000000000    0.5000000000          0.3099
C92        C    1.0000000000    0.5000000000    0.6147150785          0.3004
Zn93      Zn    0.5358988908    1.0358988908    0.0358988908          1.4972
Zn94      Zn    0.4641011092    0.9641011092    0.0358988908          1.4936
Zn95      Zn    0.4641011092    1.0358988908   -0.0358988908          1.4911
Zn96      Zn    0.5358988908    0.9641011092   -0.0358988908          1.4948
O97        O    0.5000000000    1.0000000000    0.0000000000         -2.3123
O98        O    0.5263830592    1.0263830592    0.0959459652         -1.2186
O99        O    0.4040540348    0.9736169408    0.0263830592         -1.2168
O100       O    0.4736169408    1.0959459652   -0.0263830592          -1.212
O101       O    0.4736169408    0.9736169408    0.0959459652         -1.2188
O102       O    0.5263830592    1.0959459652    0.0263830592         -1.2147
O103       O    0.4040540348    1.0263830592   -0.0263830592         -1.2206
O104       O    0.5263830592    0.9736169408   -0.0959459652         -1.2145
O105       O    0.4736169408    0.9040540348    0.0263830592         -1.2221
O106       O    0.4736169408    1.0263830592   -0.0959459652          -1.216
O107       O    0.5263830592    0.9040540348   -0.0263830592         -1.2206
O108       O    0.5959459652    0.9736169408   -0.0263830592         -1.2197
O109       O    0.5959459652    1.0263830592    0.0263830592         -1.2176
C110       C    0.5000000000    1.0000000000    0.1147150785          0.3003
C111       C    0.3852849215    1.0000000000    0.0000000000          0.3052
C112       C    0.5000000000    1.1147150785    0.0000000000          0.2948
C113       C    0.5000000000    1.0000000000   -0.1147150785          0.2986
C114       C    0.5000000000    0.8852849215    0.0000000000          0.3099
C115       C    0.6147150785    1.0000000000    0.0000000000          0.3004
Zn116     Zn    0.4641011092    1.0358988908    0.5358988908          1.4972
Zn117     Zn    0.4641011092    0.9641011092    0.4641011092          1.4936
Zn118     Zn    0.5358988908    1.0358988908    0.4641011092          1.4911
Zn119     Zn    0.5358988908    0.9641011092    0.5358988908          1.4948
O120       O    0.5000000000    1.0000000000    0.5000000000         -2.3123
O121       O    0.4040540348    1.0263830592    0.5263830592         -1.2186
O122       O    0.4736169408    0.9736169408    0.4040540348         -1.2168
O123       O    0.5263830592    1.0959459652    0.4736169408          -1.212
O124       O    0.4040540348    0.9736169408    0.4736169408         -1.2188
O125       O    0.4736169408    1.0959459652    0.5263830592         -1.2147
O126       O    0.5263830592    1.0263830592    0.4040540348         -1.2206
O127       O    0.5959459652    0.9736169408    0.5263830592         -1.2145
O128       O    0.4736169408    0.9040540348    0.4736169408         -1.2221
O129       O    0.5959459652    1.0263830592    0.4736169408          -1.216
O130       O    0.5263830592    0.9040540348    0.5263830592         -1.2206
O131       O    0.5263830592    0.9736169408    0.5959459652         -1.2197
O132       O    0.4736169408    1.0263830592    0.5959459652         -1.2176
C133       C    0.3852849215    1.0000000000    0.5000000000          0.3003
C134       C    0.5000000000    1.0000000000    0.3852849215          0.3052
C135       C    0.5000000000    1.1147150785    0.5000000000          0.2948
C136       C    0.6147150785    1.0000000000    0.5000000000          0.2986
C137       C    0.5000000000    0.8852849215    0.5000000000          0.3099
C138       C    0.5000000000    1.0000000000    0.6147150785          0.3004
Zn139     Zn    0.4641011092    0.5358988908   -0.0358988908          1.4972
Zn140     Zn    0.4641011092    0.4641011092    0.0358988908          1.4936
Zn141     Zn    0.5358988908    0.4641011092   -0.0358988908          1.4911
Zn142     Zn    0.5358988908    0.5358988908    0.0358988908          1.4948
O143       O    0.5000000000    0.5000000000    0.0000000000         -2.3123
O144       O    0.4040540348    0.5263830592   -0.0263830592         -1.2186
O145       O    0.4736169408    0.4040540348    0.0263830592         -1.2168
O146       O    0.5263830592    0.4736169408   -0.0959459652          -1.212
O147       O    0.4040540348    0.4736169408    0.0263830592         -1.2188
O148       O    0.4736169408    0.5263830592   -0.0959459652         -1.2147
O149       O    0.5263830592    0.4040540348   -0.0263830592         -1.2206
O150       O    0.5959459652    0.5263830592    0.0263830592         -1.2145
O151       O    0.4736169408    0.4736169408    0.0959459652         -1.2221
O152       O    0.5959459652    0.4736169408   -0.0263830592          -1.216
O153       O    0.5263830592    0.5263830592    0.0959459652         -1.2206
O154       O    0.5263830592    0.5959459652    0.0263830592         -1.2197
O155       O    0.4736169408    0.5959459652   -0.0263830592         -1.2176
C156       C    0.3852849215    0.5000000000    0.0000000000          0.3003
C157       C    0.5000000000    0.3852849215    0.0000000000          0.3052
C158       C    0.5000000000    0.5000000000   -0.1147150785          0.2948
C159       C    0.6147150785    0.5000000000    0.0000000000          0.2986
C160       C    0.5000000000    0.5000000000    0.1147150785          0.3099
C161       C    0.5000000000    0.6147150785    0.0000000000          0.3004
Zn162     Zn    0.4641011092    0.5358988908    0.4641011092          1.4972
Zn163     Zn    0.4641011092    0.4641011092    0.5358988908          1.4936
Zn164     Zn    0.5358988908    0.4641011092    0.4641011092          1.4911
Zn165     Zn    0.5358988908    0.5358988908    0.5358988908          1.4948
O166       O    0.5000000000    0.5000000000    0.5000000000         -2.3123
O167       O    0.4040540348    0.5263830592    0.4736169408         -1.2186
O168       O    0.4736169408    0.4040540348    0.5263830592         -1.2168
O169       O    0.5263830592    0.4736169408    0.4040540348          -1.212
O170       O    0.4040540348    0.4736169408    0.5263830592         -1.2188
O171       O    0.4736169408    0.5263830592    0.4040540348         -1.2147
O172       O    0.5263830592    0.4040540348    0.4736169408         -1.2206
O173       O    0.5959459652    0.5263830592    0.5263830592         -1.2145
O174       O    0.4736169408    0.4736169408    0.5959459652         -1.2221
O175       O    0.5959459652    0.4736169408    0.4736169408          -1.216
O176       O    0.5263830592    0.5263830592    0.5959459652         -1.2206
O177       O    0.5263830592    0.5959459652    0.5263830592         -1.2197
O178       O    0.4736169408    0.5959459652    0.4736169408         -1.2176
C179       C    0.3852849215    0.5000000000    0.5000000000          0.3003
C180       C    0.5000000000    0.3852849215    0.5000000000          0.3052
C181       C    0.5000000000    0.5000000000    0.3852849215          0.2948
C182       C    0.6147150785    0.5000000000    0.5000000000          0.2986
C183       C    0.5000000000    0.5000000000    0.6147150785          0.3099
C184       C    0.5000000000    0.6147150785    0.5000000000          0.3004
C668       C    0.5000000000    0.5000000000   -0.1640232232          0.5242
C669       C    0.5280070500    0.4775354721   -0.1890672759          0.5256
C670       C    0.5255797636    0.4795990344   -0.2317447051          0.5242
C671       C    0.4969874403    0.5030985446   -0.2528006448          0.5211
C672       C    0.4692880480    0.5257106764   -0.2285354768          0.5195
C673       C    0.4704522087    0.5241787565   -0.1850096574          0.5212
N674       N    0.4974553121    0.5023509384   -0.2947317416          0.5204
H675       H    0.5483276019    0.4609558895   -0.2505585367          0.5256
N676       N    0.5598125896    0.4517949985   -0.1750354715         -0.4716
C677       C    0.4360246562    0.5492882147   -0.1605334675          0.5213
C678       C    0.4121238990    0.5384536156   -0.2812681215         -0.4607
H679       H    0.4246211704    0.5326271026   -0.1321437607         -0.4591
H680       H    0.4480529416    0.5808444535   -0.1513823353          0.4909
H681       H    0.4068595133    0.5540780601   -0.1792130473         -0.4671
H682       H    0.4040980691    0.5046395401   -0.2769900746         -0.4303
H683       H    0.4281784193    0.5434221355   -0.3118775377          -0.474
H684       H    0.3829360355    0.5576884818   -0.2809660652         -0.4595
O685       O    0.4398070300    0.5529903710   -0.2469647009          0.5141
H686       H    0.5654091634    0.4488487686   -0.1430048407         -0.4716
H687       H    0.5887535442    0.4519357021   -0.1900772355          0.5122
N688       N    0.5000000000    0.5000000000   -0.3359767768          0.5197
C647       C    0.5000000000    0.5000000000    0.3359767768          0.5242
C648       C    0.4982328189    0.4641401766    0.3109327241          0.5256
C649       C    0.4984804357    0.4673164472    0.2682552949          0.5242
C650       C    0.5007425825    0.5042573543    0.2471993552          0.5211
C651       C    0.5028097647    0.5399545754    0.2714645232          0.5195
C652       C    0.5022518606    0.5381131652    0.3149903426          0.5212
N653       N    0.5004115076    0.5034399141    0.2052682584          0.5204
H654       H    0.4967235250    0.4379575598    0.2494414633          0.5256
N655       N    0.4960403548    0.4232824058    0.3249645285         -0.4716
C656       C    0.5023953352    0.5807244393    0.3394665325          0.5213
C657       C    0.4796014092    0.5937271955    0.2187318785         -0.4607
H658       H    0.4822125630    0.5801879222    0.3678562393         -0.4591
H659       H    0.5350084330    0.5894915200    0.3486176647          0.4909
H660       H    0.4891681754    0.6071553005    0.3207869527         -0.4671
H661       H    0.4475072490    0.5803941340    0.2230099254         -0.4303
H662       H    0.4930421437    0.5836385649    0.1881224623          -0.474
H663       H    0.4780602285    0.6286490542    0.2190339348         -0.4595
O664       O    0.5076123011    0.5798324867    0.2530352991          0.5141
H665       H    0.4969367649    0.4170215466    0.3569951593         -0.4716
H666       H    0.5131293672    0.3999250878    0.3099227645          0.5122
N667       N    0.5000000000    0.5000000000    0.1640232232          0.5197
C626       C    0.5000000000    0.8359767768    0.5000000000          0.5242
C627       C    0.5345642015    0.8109327241    0.4902857917          0.5256
C628       C    0.5314737581    0.7682552949    0.4910598516          0.5242
C629       C    0.4957272422    0.7471993552    0.5006481011          0.5211
C630       C    0.4612219360    0.7714645232    0.5100261971          0.5195
C631       C    0.4631451959    0.8149903426    0.5099703384          0.5212
N632       N    0.4966075099    0.7052682584    0.5007023949          0.5204
H633       H    0.5598703973    0.7494414633    0.4834007471          0.5256
N634       N    0.5740026225    0.8249645285    0.4793873845         -0.4716
C635       C    0.4226948774    0.8394665325    0.5233685847          0.5213
C636       C    0.4176052983    0.7187318785    0.5491121453         -0.4607
H637       H    0.4296141110    0.8678562393    0.5423358288         -0.4591
H638       H    0.4040231322    0.8486176647    0.4952289012          0.4909
H639       H    0.4018339183    0.8207869527    0.5443058377         -0.4671
H640       H    0.4404417594    0.7230099254    0.5753095058         -0.4303
H641       H    0.4229024353    0.6881224623    0.5331630340          -0.474
H642       H    0.3849813008    0.7190339348    0.5616654810         -0.4595
O643       O    0.4218836175    0.7530352991    0.5181384632          0.5141
H644       H    0.5796545577    0.8569951593    0.4765488044         -0.4716
H645       H    0.5907225842    0.8099227645    0.4557644819          0.5122
N646       N    0.5000000000    0.6640232232    0.5000000000          0.5197
C605       C    0.5000000000    1.1640232232    0.5000000000          0.5242
C606       C    0.5269968636    1.1890672759    0.4763310494          0.5256
C607       C    0.5246622322    1.2317447051    0.4784988837          0.5242
C608       C    0.4971259607    1.2528006448    0.5032274437          0.5211
C609       C    0.4704429210    1.2285354768    0.5270303895          0.5195
C610       C    0.4715389090    1.1850096574    0.5254489790          0.5212
N611       N    0.4975606590    1.2947317416    0.5024600738          0.5204
H612       H    0.5465721988    1.2505585367    0.4588778653          0.5256
N613       N    0.5576451778    1.1750354715    0.4492230217         -0.4716
C614       C    0.4382434737    1.1605334675    0.5520413699          0.5213
C615       C    0.4138913616    1.2812681215    0.5422633656         -0.4607
H616       H    0.4261216099    1.1321437607    0.5358953932         -0.4591
H617       H    0.4516415438    1.1513823353    0.5830408469          0.4909
H618       H    0.4093159518    1.1792130473    0.5581032723         -0.4671
H619       H    0.4043930781    1.2769900746    0.5088330162         -0.4303
H620       H    0.4301479810    1.3118775377    0.5465243673          -0.474
H621       H    0.3855734440    1.2809660652    0.5627574378         -0.4595
O622       O    0.4421842768    1.2469647009    0.5555744115          0.5141
H623       H    0.5631074217    1.1430048407    0.4460346364         -0.4716
H624       H    0.5865645514    1.1900772355    0.4480967556          0.5122
N625       N    0.5000000000    1.3359767768    0.5000000000          0.5197
C584       C    0.5000000000    0.6640232232    0.0000000000          0.5242
C585       C    0.5126658538    0.6890672759    0.0335950296          0.5256
C586       C    0.5114572691    0.7317447051    0.0306472623          0.5242
C587       C    0.4979891107    0.7528006448   -0.0038252867          0.5211
C588       C    0.4850874786    0.7285354768   -0.0371736409          0.5195
C589       C    0.4861825791    0.6850096574   -0.0355916158          0.5212
N590       N    0.4985546494    0.7947317416   -0.0031485408          0.5204
H591       H    0.5221221559    0.7505585367    0.0580569538          0.5256
N592       N    0.5272673861    0.6750354715    0.0718175306         -0.4716
C593       C    0.4729944709    0.6605334675   -0.0761109330          0.5213
C594       C    0.4907102084    0.7812681215   -0.0954703590         -0.4607
H595       H    0.4923715365    0.6321437607   -0.0817820416         -0.4591
H596       H    0.4392635513    0.6513823353   -0.0744674851          0.4909
H597       H    0.4774903137    0.6792130473   -0.1053228411         -0.4671
H598       H    0.5253456592    0.7769900746   -0.0926083325         -0.4303
H599       H    0.4810055471    0.8118775377   -0.0817498139          -0.474
H600       H    0.4814809996    0.7809660652   -0.1291858326         -0.4587
O601       O    0.4683014450    0.7469647009   -0.0736639306          0.5141
H602       H    0.5283317164    0.6430048407    0.0780520402         -0.4716
H603       H    0.5181538973    0.6900772355    0.0992864762          0.5122
N604       N    0.5000000000    0.8359767768    0.0000000000          0.5197
C563       C    0.5000000000    1.1640232232    0.0000000000          0.5242
C564       C    0.4969007905    1.1890672759    0.0357693272          0.5256
C565       C    0.4970850494    1.2317447051    0.0325887521          0.5242
C566       C    0.4998400613    1.2528006448   -0.0043186704          0.5211
C567       C    0.5026200340    1.2285354768   -0.0399674655          0.5195
C568       C    0.5029237551    1.1850096574   -0.0380675175          0.5212
N569       N    0.5000575328    1.2947317416   -0.0034639627          0.5204
H570       H    0.4948549357    1.2505585367    0.0619154907          0.5256
N571       N    0.4935469682    1.1750354715    0.0765481968         -0.4716
C572       C    0.5085449056    1.1605334675   -0.0803066455          0.5213
C573       C    0.5328880431    1.2812681215   -0.0901069714         -0.4607
H574       H    0.5284696544    1.1321437607   -0.0770452760         -0.4591
H575       H    0.4774172616    1.1513823353   -0.0934041887          0.4909
H576       H    0.5252253779    1.1792130473   -0.1047056214         -0.4671
H577       H    0.5628839549    1.2769900746   -0.0725555918         -0.4303
H578       H    0.5182062959    1.3118775377   -0.0819289454          -0.474
H579       H    0.5391383515    1.2809660652   -0.1244994866         -0.4595
O580       O    0.5032552386    1.2469647009   -0.0801284998          0.5141
H581       H    0.4918119946    1.1430048407    0.0826302832         -0.4716
H582       H    0.4734558359    1.1900772355    0.0973795445          0.5122
N583       N    0.5000000000    1.3359767768    0.0000000000          0.5197
C542       C    0.5000000000    1.0000000000   -0.1640232232          0.5242
C543       C    0.5280070500    0.9775354721   -0.1890672759          0.5256
C544       C    0.5255797636    0.9795990344   -0.2317447051          0.5242
C545       C    0.4969874403    1.0030985446   -0.2528006448          0.5211
C546       C    0.4692880480    1.0257106764   -0.2285354768          0.5195
C547       C    0.4704522087    1.0241787565   -0.1850096574          0.5212
N548       N    0.4974553121    1.0023509384   -0.2947317416          0.5204
H549       H    0.5483276019    0.9609558895   -0.2505585367          0.5256
N550       N    0.5598125896    0.9517949985   -0.1750354715         -0.4716
C551       C    0.4360246562    1.0492882147   -0.1605334675          0.5213
C552       C    0.4121238990    1.0384536156   -0.2812681215         -0.4607
H553       H    0.4246211704    1.0326271026   -0.1321437607         -0.4591
H554       H    0.4480529416    1.0808444535   -0.1513823353          0.4909
H555       H    0.4068595133    1.0540780601   -0.1792130473         -0.4671
H556       H    0.4040980691    1.0046395401   -0.2769900746         -0.4303
H557       H    0.4281784193    1.0434221355   -0.3118775377          -0.474
H558       H    0.3829360355    1.0576884818   -0.2809660652         -0.4595
O559       O    0.4398070300    1.0529903710   -0.2469647009          0.5141
H560       H    0.5654091634    0.9488487686   -0.1430048407         -0.4716
H561       H    0.5887535442    0.9519357021   -0.1900772355          0.5122
N562       N    0.5000000000    1.0000000000   -0.3359767768          0.5197
C521       C    0.5000000000    1.0000000000    0.1640232232          0.5242
C522       C    0.5358628758    1.0017041137    0.1890672759          0.5256
C523       C    0.5326861746    1.0014620832    0.2317447051          0.5242
C524       C    0.4957413464    0.9992649058    0.2528006448          0.5211
C525       C    0.4600405450    0.9972605056    0.2285354768          0.5195
C526       C    0.4618829336    0.9978151704    0.1850096574          0.5212
N527       N    0.4965593675    0.9995945427    0.2947317416          0.5204
H528       H    0.5620481064    1.0031673594    0.2505585367          0.5256
N529       N    0.5767244392    1.0038247201    0.1750354715         -0.4716
C530       C    0.4192714730    0.9977466341    0.1605334675          0.5213
C531       C    0.4063088233    1.0205633920    0.2812681215         -0.4607
H532       H    0.4198434836    1.0179284315    0.1321437607         -0.4591
H533       H    0.4104470510    0.9651490048    0.1513823353          0.4909
H534       H    0.3928639145    1.0110202558    0.1792130473         -0.4671
H535       H    0.4196983064    1.0526340545    0.2769900746         -0.4303
H536       H    0.4163738008    1.0071049360    0.3118775377          -0.474
H537       H    0.3713897290    1.0221659855    0.2809660652         -0.4595
O538       O    0.4201542494    0.9925281076    0.2469647009          0.5141
H539       H    0.5829837122    1.0029173008    0.1430048407         -0.4716
H540       H    0.6000516676    0.9866946570    0.1900772355          0.5122
N541       N    0.5000000000    1.0000000000    0.3359767768          0.5197
C500       C    0.8359767768    0.5000000000    0.5000000000          0.5242
C501       C    0.8109327241    0.5285970384    0.4782914934          0.5256
C502       C    0.7682552949    0.5261155045    0.4802894921          0.5242
C503       C    0.7471993552    0.4969057595    0.5030169803          0.5211
C504       C    0.7714645232    0.4686123268    0.5248812550          0.5195
C505       C    0.8149903426    0.4698169866    0.5233809738          0.5212
N506       N    0.7052682584    0.4973934314    0.5022821366          0.5204
H507       H    0.7494414633    0.5493531465    0.4622605432          0.5256
N508       N    0.8249645285    0.5610787049    0.4534096592         -0.4716
C509       C    0.8394665325    0.4347310955    0.5475619894          0.5213
C510       C    0.7187318785    0.4111282330    0.5360929176         -0.4607
H511       H    0.8678562393    0.4237766599    0.5306022581         -0.4591
H512       H    0.8486176647    0.4459122913    0.5794282211          0.4909
H513       H    0.8207869527    0.4054484299    0.5515711881         -0.4671
H514       H    0.7230099254    0.4040083669    0.5020765516         -0.4303
H515       H    0.6881224623    0.4270443279    0.5414884467          -0.474
H516       H    0.7190339348    0.3814370595    0.5545413775         -0.4595
O517       O    0.7530352991    0.4384132435    0.5513638441          0.5141
H518       H    0.8569951593    0.5667519697    0.4506139527         -0.4716
H519       H    0.8099227645    0.5900055778    0.4543232631          0.5122
N520       N    0.6640232232    0.5000000000    0.5000000000          0.5197
C479       C    1.1640232232    0.5000000000    0.5000000000          0.5242
C480       C    1.1890672759    0.5313928835    0.4825776945          0.5256
C481       C    1.2317447051    0.5285642022    0.4840434949          0.5242
C482       C    1.2528006448    0.4959918203    0.5016158557          0.5211
C483       C    1.2285354768    0.4645787437    0.5186975259          0.5195
C484       C    1.1850096574    0.4664372975    0.5181997043          0.5212
N485       N    1.2947317416    0.4968608866    0.5014657130          0.5204
H486       H    1.2505585367    0.5544295897    0.4700430402          0.5256
N487       N    1.1750354715    0.5672555867    0.4628791958         -0.4716
C488       C    1.1605334675    0.4301663812    0.5405640038          0.5213
C489       C    1.2812681215    0.4311499400    0.5667874159         -0.4607
H490       H    1.1321437607    0.4412726580    0.5574246905         -0.4591
H491       H    1.1513823353    0.4055092924    0.5174879592          0.4909
H492       H    1.1792130473    0.4146953055    0.5657472124         -0.4671
H493       H    1.2769900746    0.4594116542    0.5870131707         -0.4303
H494       H    1.3118775377    0.4326267649    0.5500466632          -0.474
H495       H    1.2809660652    0.4022996281    0.5865249677         -0.4595
O496       O    1.2469647009    0.4281710129    0.5356618799          0.5141
H497       H    1.1430048407    0.5721006952    0.4588138751         -0.4716
H498       H    1.1900772355    0.5780779912    0.4360375452          0.5122
N499       N    1.3359767768    0.5000000000    0.5000000000          0.5197
C458       C    0.8359767768    0.5000000000    0.0000000000          0.5242
C459       C    0.8109327241    0.5358297738    0.0022972104          0.5256
C460       C    0.7682552949    0.5326458694    0.0021842416          0.5242
C461       C    0.7471993552    0.4956859958    0.0002566354          0.5211
C462       C    0.7714645232    0.4599838746   -0.0017241182          0.5195
C463       C    0.8149903426    0.4618765426   -0.0020703213          0.5212
N464       N    0.7052682584    0.4965356177    0.0000200733          0.5204
H465       H    0.7494414633    0.5620152036    0.0037568861          0.5256
N466       N    0.8249645285    0.5766735364    0.0047367575         -0.4716
C467       C    0.8394665325    0.4195221006   -0.0067439184          0.5213
C468       C    0.7187318785    0.4091789551   -0.0308614239         -0.4607
H469       H    0.8678562393    0.4223363438   -0.0267367216         -0.4591
H470       H    0.8486176647    0.4071250929    0.0246692963          0.4909
H471       H    0.8207869527    0.3947556093   -0.0228736762         -0.4671
H472       H    0.7230099254    0.4260540322   -0.0612429549         -0.4303
H473       H    0.6881224623    0.4176837957   -0.0163665456          -0.474
H474       H    0.7190339348    0.3746550643   -0.0363397828         -0.4595
O475       O    0.7530352991    0.4198186885   -0.0014595691          0.5141
H476       H    0.8569951593    0.5827929596    0.0063350590         -0.4716
H477       H    0.8099227645    0.5979496924    0.0243562334          0.5122
N478       N    0.6640232232    0.5000000000    0.0000000000          0.5197
C437       C    1.3359767768    0.5000000000    0.0000000000          0.5242
C438       C    1.3109327241    0.4814824064    0.0307595285          0.5256
C439       C    1.2682552949    0.4830469632    0.0279842499          0.5242
C440       C    1.2471993552    0.5017560777   -0.0039487574          0.5211
C441       C    1.2714645232    0.5199339591   -0.0347404685          0.5195
C442       C    1.3149903426    0.5193709618   -0.0329006091          0.5212
N443       N    1.2052682584    0.5015754073   -0.0030855209          0.5204
H444       H    1.2494414633    0.4681438531    0.0533402810          0.5256
N445       N    1.3249645285    0.4605325419    0.0659059011         -0.4716
C446       C    1.3394665325    0.5429993549   -0.0683610138          0.5213
C447       C    1.2187318785    0.5691718293   -0.0664541023         -0.4607
H448       H    1.3678562393    0.5594582507   -0.0566675587         -0.4591
H449       H    1.3486176647    0.5208064137   -0.0938158605          0.4909
H450       H    1.3207869527    0.5687120391   -0.0829351706         -0.4671
H451       H    1.2230099254    0.5883892441   -0.0374972962         -0.4303
H452       H    1.1881224623    0.5523894365   -0.0655680429          -0.474
H453       H    1.2190339348    0.5899136460   -0.0945910618         -0.4595
O454       O    1.2530352991    0.5381705802   -0.0705278659          0.5141
H455       H    1.3569951593    0.4562990315    0.0706047625         -0.4716
H456       H    1.3099227645    0.4333262381    0.0757758392          0.5122
N457       N    1.1640232232    0.5000000000    0.0000000000          0.5197
C416       C    1.0000000000    0.5000000000   -0.1640232232          0.5242
C417       C    0.9641461387    0.5018842748   -0.1890672759          0.5256
C418       C    0.9673215837    0.5016262870   -0.2317447051          0.5242
C419       C    1.0042549066    0.4992435187   -0.2528006448          0.5211
C420       C    1.0399451869    0.4970597754   -0.2285354768          0.5195
C421       C    1.0381056083    0.4976236897   -0.1850096574          0.5212
N422       N    1.0034385519    0.4995772613   -0.2947317416          0.5204
H423       H    0.9379685902    0.5034790622   -0.2505585367          0.5256
N424       N    0.9232957454    0.5042101516   -0.1750354715         -0.4716
C425       C    1.0807161867    0.4973410653   -0.1605334675          0.5213
C426       C    1.0937933090    0.5200924082   -0.2812681215         -0.4607
H427       H    1.0802455809    0.5175254820   -0.1321437607         -0.4591
H428       H    1.0893767199    0.4646995117   -0.1513823353          0.4909
H429       H    1.1071901013    0.5104818424   -0.1792130473         -0.4671
H430       H    1.0805651247    0.5522299375   -0.2769900746         -0.4303
H431       H    1.0836608404    0.5066846906   -0.3118775377          -0.474
H432       H    1.1287200143    0.5215195405   -0.2809660652         -0.4595
O433       O    1.0798072024    0.4921270400   -0.2469647009          0.5141
H434       H    0.9170319923    0.5033341917   -0.1430048407         -0.4716
H435       H    0.8998827464    0.4871975057   -0.1900772355          0.5122
N436       N    1.0000000000    0.5000000000   -0.3359767768          0.5197
C395       C    1.0000000000    0.5000000000    0.1640232232          0.5242
C396       C    0.9641461387    0.4981157252    0.1890672759          0.5256
C397       C    0.9673215837    0.4983737130    0.2317447051          0.5242
C398       C    1.0042549066    0.5007564813    0.2528006448          0.5211
C399       C    1.0399451869    0.5029402246    0.2285354768          0.5195
C400       C    1.0381056083    0.5023763103    0.1850096574          0.5212
N401       N    1.0034385519    0.5004227387    0.2947317416          0.5204
H402       H    0.9379685902    0.4965209378    0.2505585367          0.5256
N403       N    0.9232957454    0.4957898484    0.1750354715         -0.4716
C404       C    1.0807161867    0.5026589347    0.1605334675          0.5213
C405       C    1.0937933090    0.4799075918    0.2812681215         -0.4607
H406       H    1.0802455809    0.4824745180    0.1321437607         -0.4591
H407       H    1.0893767199    0.5353004883    0.1513823353          0.4909
H408       H    1.1071901013    0.4895181576    0.1792130473         -0.4671
H409       H    1.0805651247    0.4477700625    0.2769900746         -0.4303
H410       H    1.0836608404    0.4933153094    0.3118775377          -0.474
H411       H    1.1287200143    0.4784804595    0.2809660652         -0.4595
O412       O    1.0798072024    0.5078729600    0.2469647009          0.5141
H413       H    0.9170319923    0.4966658083    0.1430048407         -0.4716
H414       H    0.8998827464    0.5128024943    0.1900772355          0.5122
N415       N    1.0000000000    0.5000000000    0.3359767768          0.5197
C374       C    1.0000000000   -0.3359767768    0.5000000000          0.5242
C375       C    0.9966469398   -0.3109327241    0.4642535757          0.5256
C376       C    0.9970349360   -0.2682552949    0.4674157692          0.5242
C377       C    1.0009303391   -0.2471993552    0.5042203037          0.5211
C378       C    1.0045759073   -0.2714645232    0.5397910034          0.5195
C379       C    1.0039370260   -0.3149903426    0.5379760985          0.5212
N380       N    1.0005633984   -0.2052682584    0.5034183226          0.5204
H381       H    0.9939799501   -0.2494414633    0.4381634520          0.5256
N382       N    0.9926477409   -0.3249645285    0.4235329330         -0.4716
C383       C    1.0059668769   -0.3394665325    0.5805392395          0.5213
C384       C    0.9837709681   -0.2187318785    0.5945383954         -0.4607
H385       H    0.9857801412   -0.3678562393    0.5808967947         -0.4591
H386       H    1.0389361395   -0.3486176647    0.5878538535          0.4909
H387       H    0.9939228527   -0.3207869527    0.6075297872         -0.4671
H388       H    0.9511179859   -0.2230099254    0.5826393029         -0.4303
H389       H    0.9967518727   -0.1881224623    0.5838645991          -0.474
H390       H    0.9837773841   -0.2190339348    0.6294942448         -0.4595
O391       O    1.0111392383   -0.2530352991    0.5794171923          0.5141
H392       H    0.9932660868   -0.3569951593    0.4172385262         -0.4716
H393       H    1.0086859052   -0.3099227645    0.3994419402          0.5122
N394       N    1.0000000000   -0.1640232232    0.5000000000          0.5197
C353       C    1.0000000000    0.1640232232    0.5000000000          0.5242
C354       C    0.9974018933    0.1890672759    0.5358092126          0.5256
C355       C    0.9975416036    0.2317447051    0.5326263695          0.5242
C356       C    0.9997796122    0.2528006448    0.4956839922          0.5211
C357       C    1.0020602009    0.2285354768    0.4599997694          0.5195
C358       C    1.0023904930    0.1850096574    0.4618952788          0.5212
N359       N    1.0000090289    0.2947317416    0.4965355713          0.5204
H360       H    0.9957223062    0.2505585367    0.5619814570          0.5256
N361       N    0.9946193365    0.1750354715    0.5766310414         -0.4716
C362       C    1.0074197111    0.1605334675    0.4195815903          0.5213
C363       C    1.0316232502    0.2812681215    0.4094414017         -0.4607
H364       H    1.0273881687    0.1321437607    0.4225636778         -0.4591
H365       H    0.9761117421    0.1513823353    0.4069211427          0.4909
H366       H    1.0237569433    0.1792130473    0.3949514660         -0.4671
H367       H    1.0618619552    0.2769900746    0.4265710943         -0.4303
H368       H    1.0170574409    0.3118775377    0.4178241823          -0.474
H369       H    1.0373914234    0.2809660652    0.3749647483         -0.4595
O370       O    1.0021330568    0.2469647009    0.4198337781          0.5141
H371       H    0.9929696870    0.1430048407    0.5827368227         -0.4716
H372       H    0.9748218288    0.1900772355    0.5977416392          0.5122
N373       N    1.0000000000    0.3359767768    0.5000000000          0.5197
C332       C    0.6640232232   -0.0000000000    0.5000000000          0.5242
C333       C    0.6890672759   -0.0289375669    0.5212524608          0.5256
C334       C    0.7317447051   -0.0263169653    0.5194407057          0.5242
C335       C    0.7528006448    0.0037716538    0.4978902317          0.5211
C336       C    0.7285354768    0.0327723293    0.4769731177          0.5195
C337       C    0.6850096574    0.0309916531    0.4777019805          0.5212
N338       N    0.7947317416    0.0029285524    0.4981490736          0.5204
H339       H    0.7505585367   -0.0502041514    0.5365997657          0.5256
N340       N    0.6750354715   -0.0620212129    0.5453281060         -0.4716
C341       C    0.6605334675    0.0641431102    0.4509303134          0.5213
C342       C    0.7812681215    0.0598511610    0.4250418236         -0.4607
H343       H    0.6321437607    0.0509937515    0.4356095265         -0.4591
H344       H    0.6513823353    0.0915204976    0.4707028831          0.4909
H345       H    0.6792130473    0.0763052340    0.4239927760         -0.4671
H346       H    0.7769900746    0.0292585441    0.4085525108         -0.4303
H347       H    0.8118775377    0.0605032760    0.4418349340          -0.474
H348       H    0.7809660652    0.0859737771    0.4018142456         -0.4595
O349       O    0.7469647009    0.0667423947    0.4555407399          0.5141
H350       H    0.6430048407   -0.0663133098    0.5499735138         -0.4716
H351       H    0.6900772355   -0.0693622569    0.5733228863          0.5122
N352       N    0.8359767768   -0.0000000000    0.5000000000          0.5197
C311       C    1.1640232232   -0.0000000000    0.5000000000          0.5242
C312       C    1.1890672759    0.0085157433    0.5348788185          0.5256
C313       C    1.2317447051    0.0078487839    0.5317635056          0.5242
C314       C    1.2528006448   -0.0005002784    0.4957074232          0.5211
C315       C    1.2285354768   -0.0086821418    0.4608990628          0.5195
C316       C    1.1850096574   -0.0086926808    0.4628231048          0.5212
N317       N    1.2947317416   -0.0005849146    0.4965852932          0.5204
H318       H    1.2505585367    0.0145234665    0.5604075210          0.5256
N319       N    1.1750354715    0.0180467894    0.5746698161         -0.4716
C320       C    1.1605334675   -0.0206871606    0.4219345524          0.5213
C321       C    1.2812681215   -0.0462397683    0.4159596912         -0.4607
H322       H    1.1321437607   -0.0398818660    0.4281951775         -0.4591
H323       H    1.1513823353    0.0080800567    0.4042449206          0.4909
H324       H    1.1792130473   -0.0408921122    0.4003635508         -0.4671
H325       H    1.2769900746   -0.0732095278    0.4378785808         -0.4303
H326       H    1.3118775377   -0.0304829392    0.4218040172          -0.474
H327       H    1.2809660652   -0.0576598974    0.3829219536         -0.4595
O328       O    1.2469647009   -0.0154321602    0.4213042473          0.5141
H329       H    1.1430048407    0.0206886522    0.5804163342         -0.4716
H330       H    1.1900772355    0.0410786815    0.5921949579          0.5122
N331       N    1.3359767768   -0.0000000000    0.5000000000          0.5197
C290       C   -0.0000000000   -0.1640232232    0.0000000000          0.5242
C291       C    0.0348850129   -0.1890672759   -0.0084903323          0.5256
C292       C    0.0317692149   -0.2317447051   -0.0078256426          0.5242
C293       C   -0.0042929401   -0.2528006448    0.0004971512          0.5211
C294       C   -0.0391072516   -0.2285354768    0.0086536550          0.5195
C295       C   -0.0371832178   -0.1850096574    0.0086655956          0.5212
N296       N   -0.0034151320   -0.2947317416    0.0005824269          0.5204
H297       H    0.0604180851   -0.2505585367   -0.0144794566          0.5256
N298       N    0.0746829432   -0.1750354715   -0.0179923886         -0.4716
C299       C   -0.0780804972   -0.1605334675    0.0206302854          0.5213
C300       C   -0.0840739716   -0.2812681215    0.0461785338         -0.4607
H301       H   -0.0718338569   -0.1321437607    0.0398295466         -0.4591
H302       H   -0.0957491677   -0.1513823353   -0.0081498109          0.4909
H303       H   -0.0996662121   -0.1792130473    0.0408195175         -0.4671
H304       H   -0.0621747349   -0.2769900746    0.0731642537         -0.4303
H305       H   -0.0782181685   -0.3118775377    0.0304259663          -0.474
H306       H   -0.1171200198   -0.2809660652    0.0575745923         -0.4595
O307       O   -0.0787069739   -0.2469647009    0.0153748273          0.5141
H308       H    0.0804313843   -0.1430048407   -0.0206300644         -0.4716
H309       H    0.0922248587   -0.1900772355   -0.0410115077          0.5122
N310       N   -0.0000000000   -0.3359767768    0.0000000000          0.5197
C269       C   -0.0000000000    0.1640232232    0.0000000000          0.5242
C270       C    0.0350933207    0.1890672759    0.0075834496          0.5256
C271       C    0.0319613440    0.2317447051    0.0069997278          0.5242
C272       C   -0.0043043819    0.2528006448   -0.0003857344          0.5211
C273       C   -0.0393183739    0.2285354768   -0.0076372998          0.5195
C274       C   -0.0373952957    0.1850096574   -0.0076990970          0.5212
N275       N   -0.0034290784    0.2947317416   -0.0004937295          0.5204
H276       H    0.0607730237    0.2505585367    0.0129088830          0.5256
N277       N    0.0751241273    0.1750354715    0.0160509671         -0.4716
C278       C   -0.0785889004    0.1605334675   -0.0185999317          0.5213
C279       C   -0.0852424346    0.2812681215   -0.0439842815         -0.4607
H280       H   -0.0728418992    0.1321437607   -0.0379546242         -0.4591
H281       H   -0.0955058122    0.1513823353    0.0106283756          0.4909
H282       H   -0.1006905619    0.1792130473   -0.0382229982         -0.4671
H283       H   -0.0640498769    0.2769900746   -0.0715284486         -0.4303
H284       H   -0.0789803766    0.3118775377   -0.0283887552          -0.474
H285       H   -0.1185727090    0.2809660652   -0.0545201375         -0.4595
O286       O   -0.0790789736    0.2469647009   -0.0133300037          0.5141
H287       H    0.0809389922    0.1430048407    0.0185387885         -0.4716
H288       H    0.0932566830    0.1900772355    0.0386077637          0.5122
N289       N   -0.0000000000    0.3359767768    0.0000000000          0.5197
C248       C   -0.3359767768   -0.0000000000    0.0000000000          0.5242
C249       C   -0.3109327241   -0.0161712578    0.0320552693          0.5256
C250       C   -0.2682552949   -0.0146556472    0.0292529606          0.5242
C251       C   -0.2471993552    0.0024067974   -0.0035894039          0.5211
C252       C   -0.2714645232    0.0187862253   -0.0353742932          0.5195
C253       C   -0.3149903426    0.0175288869   -0.0339178767          0.5212
N254       N   -0.2052682584    0.0017724099   -0.0029767282          0.5204
H255       H   -0.2494414633   -0.0281786596    0.0553711370          0.5256
N256       N   -0.3249645285   -0.0347599517    0.0685055750         -0.4716
C257       C   -0.3394665325    0.0349567733   -0.0728024500          0.5213
C258       C   -0.2187318785    0.0194032844   -0.0939382895         -0.4607
H259       H   -0.3678562393    0.0162937801   -0.0805047111         -0.4591
H260       H   -0.3486176647    0.0683208984   -0.0675764558          0.4909
H261       H   -0.3207869527    0.0335971699   -0.1023270102         -0.4671
H262       H   -0.2230099254   -0.0153400015   -0.0947807472         -0.4303
H263       H   -0.1881224623    0.0275917123   -0.0792623411          -0.474
H264       H   -0.2190339348    0.0321702632   -0.1264792745         -0.4595
O265       O   -0.2530352991    0.0393625424   -0.0698696165          0.5141
H266       H   -0.3569951593   -0.0364821220    0.0745912991         -0.4716
H267       H   -0.3099227645   -0.0286233553    0.0967888003          0.5122
N268       N   -0.1640232232   -0.0000000000    0.0000000000          0.5197
C227       C    0.1640232232   -0.0000000000    0.0000000000          0.5242
C228       C    0.1890672759    0.0337795753   -0.0121651206          0.5256
C229       C    0.2317447051    0.0307525172   -0.0111716778          0.5242
C230       C    0.2528006448   -0.0042153579    0.0009524979          0.5211
C231       C    0.2285354768   -0.0379602652    0.0127781509          0.5195
C232       C    0.1850096574   -0.0360459470    0.0125846707          0.5212
N233       N    0.2947317416   -0.0033334623    0.0009435978          0.5204
H234       H    0.2505585367    0.0585275825   -0.0208451854          0.5256
N235       N    0.1750354715    0.0723360240   -0.0258605430         -0.4716
C236       C    0.1605334675   -0.0754326280    0.0288459938          0.5213
C237       C    0.2812681215   -0.0786650976    0.0548879959         -0.4607
H238       H    0.1321437607   -0.0671725271    0.0472688839         -0.4591
H239       H    0.1513823353   -0.0960720812    0.0021160700          0.4909
H240       H    0.1792130473   -0.0947402445    0.0512237534         -0.4671
H241       H    0.2769900746   -0.0540107573    0.0793822636         -0.4303
H242       H    0.3118775377   -0.0745240177    0.0386004157          -0.474
H243       H    0.2809660652   -0.1103060836    0.0697459721         -0.4595
O244       O    0.2469647009   -0.0766164424    0.0236874188          0.5141
H245       H    0.1430048407    0.0777701104   -0.0290966848         -0.4716
H246       H    0.1900772355    0.0873209049   -0.0506204297          0.5122
N247       N    0.3359767768   -0.0000000000    0.0000000000          0.5197
C206       C   -0.0000000000    0.0000000000   -0.1640232232          0.5242
C207       C   -0.0353916015    0.0060402328   -0.1890672759          0.5256
C208       C   -0.0322676898    0.0054147848   -0.2317447051          0.5242
C209       C    0.0041380919   -0.0012460697   -0.2528006448          0.5211
C210       C    0.0393324025   -0.0075647202   -0.2285354768          0.5195
C211       C    0.0375708671   -0.0067907422   -0.1850096574          0.5212
N212       N    0.0033660784   -0.0008196728   -0.2947317416          0.5204
H213       H   -0.0612061772    0.0106678741   -0.2505585367          0.5256
N214       N   -0.0756945012    0.0131000204   -0.1750354715         -0.4716
C215       C    0.0798595832   -0.0120257928   -0.1605334675          0.5213
C216       C    0.0954933160    0.0090507612   -0.2812681215         -0.4607
H217       H    0.0817390167    0.0080764427   -0.1321437607         -0.4591
H218       H    0.0846661354   -0.0454529212   -0.1513823353          0.4909
H219       H    0.1076818231   -0.0020522706   -0.1792130473         -0.4671
H220       H    0.0860914893    0.0425083658   -0.2769900746         -0.4303
H221       H    0.0838706509   -0.0030879153   -0.3118775377          -0.474
H222       H    0.1303490679    0.0064072770   -0.2809660652         -0.4595
O223       O    0.0783505280   -0.0170987668   -0.2469647009          0.5141
H224       H   -0.0820176192    0.0129582898   -0.1430048407         -0.4716
H225       H   -0.1009267690   -0.0010750037   -0.1900772355          0.5122
N226       N   -0.0000000000    0.0000000000   -0.3359767768          0.5197
C185       C   -0.0000000000    0.0000000000    0.3359767768          0.5242
C186       C   -0.0358560094   -0.0018429468    0.3109327241          0.5256
C187       C   -0.0326709291   -0.0017703374    0.2682552949          0.5242
C188       C    0.0043104054   -0.0003112871    0.2471993552          0.5211
C189       C    0.0400347619    0.0012168460    0.2714645232          0.5195
C190       C    0.0381466334    0.0015870075    0.3149903426          0.5212
N191       N    0.0034638497   -0.0000639766    0.2052682584          0.5204
H192       H   -0.0620578351   -0.0029706512    0.2494414633          0.5256
N193       N   -0.0767274088   -0.0037646753    0.3249645285         -0.4716
C194       C    0.0805569036    0.0057234615    0.3394665325          0.5213
C195       C    0.0912048652    0.0297079491    0.2187318785         -0.4607
H196       H    0.0779962599    0.0257503247    0.3678562393         -0.4591
H197       H    0.0925548086   -0.0258443406    0.3486176647          0.4909
H198       H    0.1055258222    0.0215380523    0.3207869527         -0.4671
H199       H    0.0747161757    0.0603009019    0.2230099254         -0.4303
H200       H    0.0825170107    0.0153220186    0.1881224623          -0.474
H201       H    0.1257954120    0.0347483386    0.2190339348         -0.4595
O202       O    0.0801933697    0.0004432952    0.2530352991          0.5141
H203       H   -0.0828665963   -0.0052852956    0.3569951593         -0.4716
H204       H   -0.0982504984   -0.0231129379    0.3099227645          0.5122
N205       N   -0.0000000000    0.0000000000    0.1640232232          0.5197
loop_
_geom_bond_atom_site_label_1
_geom_bond_atom_site_label_2
_geom_bond_distance
_geom_bond_site_symmetry_2
_ccdc_geom_bond_type
Zn1          O5 1.942       .   S
Zn1          O6 1.922       .   S
Zn1         O10 1.922       .   S
Zn1         O17 1.922       .   S
Zn2          O5 1.942       .   S
Zn2          O7 1.922       .   S
Zn2          O9 1.922       .   S
Zn2         O13 1.922       .   S
Zn3          O5 1.942       .   S
Zn3          O8 1.922       .   S
Zn3         O11 1.922       .   S
Zn3         O14 1.922       .   S
Zn4          O5 1.942       .   S
Zn4         O12 1.922       .   S
Zn4         O15 1.922       .   S
Zn4         O16 1.922       .   S
O6          C18 1.304       .   A
O7          C19 1.304       .   A
O8          C20 1.304       .   A
O9          C18 1.304       .   A
O10         C20 1.304       .   A
O11         C19 1.304       .   A
O12         C21 1.304       .   A
O13         C22 1.304       .   A
O14         C21 1.304       .   A
O15         C22 1.304       .   A
O16         C23 1.304       .   A
O17         C23 1.304       .   A
C18        N205 1.540       .   S
C19        C227 1.540       .   S
C20        C290 1.540       .   S
C21        C206 1.540       .   S
C22        C269 1.540       .   S
C23        N268 1.540       .   S
Zn24        O28 1.942       .   S
Zn24        O29 1.922       .   S
Zn24        O33 1.922       .   S
Zn24        O40 1.922       .   S
Zn25        O28 1.942       .   S
Zn25        O30 1.922       .   S
Zn25        O32 1.922       .   S
Zn25        O36 1.922       .   S
Zn26        O28 1.942       .   S
Zn26        O31 1.922       .   S
Zn26        O34 1.922       .   S
Zn26        O37 1.922       .   S
Zn27        O28 1.942       .   S
Zn27        O35 1.922       .   S
Zn27        O38 1.922       .   S
Zn27        O39 1.922       .   S
O29         C41 1.304       .   A
O30         C42 1.304       .   A
O31         C43 1.304       .   A
O32         C41 1.304       .   A
O33         C43 1.304       .   A
O34         C42 1.304       .   A
O35         C44 1.304       .   A
O36         C45 1.304       .   A
O37         C44 1.304       .   A
O38         C45 1.304       .   A
O39         C46 1.304       .   A
O40         C46 1.304       .   A
C41        C185 1.540   1_655   S
C42        C311 1.540       .   S
C43        C353 1.540       .   S
C44        N226 1.540   1_656   S
C45        N394 1.540       .   S
C46        N352 1.540       .   S
Zn47        O51 1.942       .   S
Zn47        O52 1.922       .   S
Zn47        O56 1.922       .   S
Zn47        O63 1.922       .   S
Zn48        O51 1.942       .   S
Zn48        O53 1.922       .   S
Zn48        O55 1.922       .   S
Zn48        O59 1.922       .   S
Zn49        O51 1.942       .   S
Zn49        O54 1.922       .   S
Zn49        O57 1.922       .   S
Zn49        O60 1.922       .   S
Zn50        O51 1.942       .   S
Zn50        O58 1.922       .   S
Zn50        O61 1.922       .   S
Zn50        O62 1.922       .   S
O52         C64 1.304       .   A
O53         C65 1.304       .   A
O54         C66 1.304       .   A
O55         C64 1.304       .   A
O56         C66 1.304       .   A
O57         C65 1.304       .   A
O58         C67 1.304       .   A
O59         C68 1.304       .   A
O60         C67 1.304       .   A
O61         C68 1.304       .   A
O62         C69 1.304       .   A
O63         C69 1.304       .   A
C64        N289 1.540   1_655   S
C65        C395 1.540       .   S
C66        N457 1.540       .   S
C67        N310 1.540   1_665   S
C68        C458 1.540       .   S
C69        C416 1.540       .   S
Zn70        O74 1.942       .   S
Zn70        O75 1.922       .   S
Zn70        O79 1.922       .   S
Zn70        O86 1.922       .   S
Zn71        O74 1.942       .   S
Zn71        O76 1.922       .   S
Zn71        O78 1.922       .   S
Zn71        O82 1.922       .   S
Zn72        O74 1.942       .   S
Zn72        O77 1.922       .   S
Zn72        O80 1.922       .   S
Zn72        O83 1.922       .   S
Zn73        O74 1.942       .   S
Zn73        O81 1.922       .   S
Zn73        O84 1.922       .   S
Zn73        O85 1.922       .   S
O75         C87 1.304       .   A
O76         C88 1.304       .   A
O77         C89 1.304       .   A
O78         C87 1.304       .   A
O79         C89 1.304       .   A
O80         C88 1.304       .   A
O81         C90 1.304       .   A
O82         C91 1.304       .   A
O83         C90 1.304       .   A
O84         C91 1.304       .   A
O85         C92 1.304       .   A
O86         C92 1.304       .   A
C87        N373 1.540       .   S
C88        N415 1.540       .   S
C89        C500 1.540       .   S
C90        C374 1.540   1_565   S
C91        C479 1.540       .   S
C92        N436 1.540   1_556   S
Zn93        O97 1.942       .   S
Zn93        O98 1.922       .   S
Zn93       O102 1.922       .   S
Zn93       O109 1.922       .   S
Zn94        O97 1.942       .   S
Zn94        O99 1.922       .   S
Zn94       O101 1.922       .   S
Zn94       O105 1.922       .   S
Zn95        O97 1.942       .   S
Zn95       O100 1.922       .   S
Zn95       O103 1.922       .   S
Zn95       O106 1.922       .   S
Zn96        O97 1.942       .   S
Zn96       O104 1.922       .   S
Zn96       O107 1.922       .   S
Zn96       O108 1.922       .   S
O98        C110 1.304       .   A
O99        C111 1.304       .   A
O100       C112 1.304       .   A
O101       C110 1.304       .   A
O102       C112 1.304       .   A
O103       C111 1.304       .   A
O104       C113 1.304       .   A
O105       C114 1.304       .   A
O106       C113 1.304       .   A
O107       C114 1.304       .   A
O108       C115 1.304       .   A
O109       C115 1.304       .   A
C110       C521 1.540       .   S
C111       N247 1.540   1_565   S
C112       C563 1.540       .   S
C113       C542 1.540       .   S
C114       N604 1.540       .   S
C115       C248 1.540   1_665   S
Zn116      O120 1.942       .   S
Zn116      O121 1.922       .   S
Zn116      O125 1.922       .   S
Zn116      O132 1.922       .   S
Zn117      O120 1.942       .   S
Zn117      O122 1.922       .   S
Zn117      O124 1.922       .   S
Zn117      O128 1.922       .   S
Zn118      O120 1.942       .   S
Zn118      O123 1.922       .   S
Zn118      O126 1.922       .   S
Zn118      O129 1.922       .   S
Zn119      O120 1.942       .   S
Zn119      O127 1.922       .   S
Zn119      O130 1.922       .   S
Zn119      O131 1.922       .   S
O121       C133 1.304       .   A
O122       C134 1.304       .   A
O123       C135 1.304       .   A
O124       C133 1.304       .   A
O125       C135 1.304       .   A
O126       C134 1.304       .   A
O127       C136 1.304       .   A
O128       C137 1.304       .   A
O129       C136 1.304       .   A
O130       C137 1.304       .   A
O131       C138 1.304       .   A
O132       C138 1.304       .   A
C133       N331 1.540   1_465   S
C134       N541 1.540       .   S
C135       C605 1.540       .   S
C136       C332 1.540   1_565   S
C137       C626 1.540       .   S
C138       N562 1.540   1_556   S
Zn139      O143 1.942       .   S
Zn139      O144 1.922       .   S
Zn139      O148 1.922       .   S
Zn139      O155 1.922       .   S
Zn140      O143 1.942       .   S
Zn140      O145 1.922       .   S
Zn140      O147 1.922       .   S
Zn140      O151 1.922       .   S
Zn141      O143 1.942       .   S
Zn141      O146 1.922       .   S
Zn141      O149 1.922       .   S
Zn141      O152 1.922       .   S
Zn142      O143 1.942       .   S
Zn142      O150 1.922       .   S
Zn142      O153 1.922       .   S
Zn142      O154 1.922       .   S
O144       C156 1.304       .   A
O145       C157 1.304       .   A
O146       C158 1.304       .   A
O147       C156 1.304       .   A
O148       C158 1.304       .   A
O149       C157 1.304       .   A
O150       C159 1.304       .   A
O151       C160 1.304       .   A
O152       C159 1.304       .   A
O153       C160 1.304       .   A
O154       C161 1.304       .   A
O155       C161 1.304       .   A
C156       C437 1.540   1_455   S
C157       N583 1.540   1_545   S
C158       C668 1.540       .   S
C159       N478 1.540       .   S
C160       N667 1.540       .   S
C161       C584 1.540       .   S
Zn162      O166 1.942       .   S
Zn162      O167 1.922       .   S
Zn162      O171 1.922       .   S
Zn162      O178 1.922       .   S
Zn163      O166 1.942       .   S
Zn163      O168 1.922       .   S
Zn163      O170 1.922       .   S
Zn163      O174 1.922       .   S
Zn164      O166 1.942       .   S
Zn164      O169 1.922       .   S
Zn164      O172 1.922       .   S
Zn164      O175 1.922       .   S
Zn165      O166 1.942       .   S
Zn165      O173 1.922       .   S
Zn165      O176 1.922       .   S
Zn165      O177 1.922       .   S
O167       C179 1.304       .   A
O168       C180 1.304       .   A
O169       C181 1.304       .   A
O170       C179 1.304       .   A
O171       C181 1.304       .   A
O172       C180 1.304       .   A
O173       C182 1.304       .   A
O174       C183 1.304       .   A
O175       C182 1.304       .   A
O176       C183 1.304       .   A
O177       C184 1.304       .   A
O178       C184 1.304       .   A
C179       N499 1.540   1_455   S
C180       N625 1.540   1_545   S
C181       C647 1.540       .   S
C182       N520 1.540       .   S
C183       N688 1.540   1_556   S
C184       N646 1.540       .   S
C668       C669 0.041       .   A
C668       C673 0.041       .   A
C669       C670 0.040       .   A
C669       N676 0.041       .   A
C670       C671 0.040       .   A
C670       H675 0.033       .   A
C671       C672 0.041       .   A
C671       N674 0.039       .   A
C672       C673 0.041       .   A
C672       O685 0.041       .   A
C673       C677 0.046       .   A
N674       N688 0.039       .   A
N676       H686 0.031       .   A
N676       H687 0.031       .   A
C677       H679 0.033       .   A
C677       H680 0.033       .   A
C677       H681 0.033       .   A
C678       H682 0.033       .   A
C678       H683 0.033       .   A
C678       H684 0.033       .   A
C678       O685 0.044       .   A
C647       C648 0.041       .   A
C647       C652 0.041       .   A
C648       C649 0.040       .   A
C648       N655 0.041       .   A
C649       C650 0.040       .   A
C649       H654 0.033       .   A
C650       C651 0.041       .   A
C650       N653 0.039       .   A
C651       C652 0.041       .   A
C651       O664 0.041       .   A
C652       C656 0.046       .   A
N653       N667 0.039       .   A
N655       H665 0.031       .   A
N655       H666 0.031       .   A
C656       H658 0.033       .   A
C656       H659 0.033       .   A
C656       H660 0.033       .   A
C657       H661 0.033       .   A
C657       H662 0.033       .   A
C657       H663 0.033       .   A
C657       O664 0.044       .   A
C626       C627 0.041       .   A
C626       C631 0.041       .   A
C627       C628 0.040       .   A
C627       N634 0.041       .   A
C628       C629 0.040       .   A
C628       H633 0.033       .   A
C629       C630 0.041       .   A
C629       N632 0.039       .   A
C630       C631 0.041       .   A
C630       O643 0.041       .   A
C631       C635 0.046       .   A
N632       N646 0.039       .   A
N634       H644 0.031       .   A
N634       H645 0.031       .   A
C635       H637 0.033       .   A
C635       H638 0.033       .   A
C635       H639 0.033       .   A
C636       H640 0.033       .   A
C636       H641 0.033       .   A
C636       H642 0.033       .   A
C636       O643 0.044       .   A
C605       C606 0.041       .   A
C605       C610 0.041       .   A
C606       C607 0.040       .   A
C606       N613 0.041       .   A
C607       C608 0.040       .   A
C607       H612 0.033       .   A
C608       C609 0.041       .   A
C608       N611 0.039       .   A
C609       C610 0.041       .   A
C609       O622 0.041       .   A
C610       C614 0.046       .   A
N611       N625 0.039       .   A
N613       H623 0.031       .   A
N613       H624 0.031       .   A
C614       H616 0.033       .   A
C614       H617 0.033       .   A
C614       H618 0.033       .   A
C615       H619 0.033       .   A
C615       H620 0.033       .   A
C615       H621 0.033       .   A
C615       O622 0.044       .   A
C584       C585 0.041       .   A
C584       C589 0.041       .   A
C585       C586 0.040       .   A
C585       N592 0.041       .   A
C586       C587 0.040       .   A
C586       H591 0.033       .   A
C587       C588 0.041       .   A
C587       N590 0.039       .   A
C588       C589 0.041       .   A
C588       O601 0.041       .   A
C589       C593 0.046       .   A
N590       N604 0.039       .   A
N592       H602 0.031       .   A
N592       H603 0.031       .   A
C593       H595 0.033       .   A
C593       H596 0.033       .   A
C593       H597 0.033       .   A
C594       H598 0.033       .   A
C594       H599 0.033       .   A
C594       H600 0.033       .   A
C594       O601 0.044       .   A
C563       C564 0.041       .   A
C563       C568 0.041       .   A
C564       C565 0.040       .   A
C564       N571 0.041       .   A
C565       C566 0.040       .   A
C565       H570 0.033       .   A
C566       C567 0.041       .   A
C566       N569 0.039       .   A
C567       C568 0.041       .   A
C567       O580 0.041       .   A
C568       C572 0.046       .   A
N569       N583 0.039       .   A
N571       H581 0.031       .   A
N571       H582 0.031       .   A
C572       H574 0.033       .   A
C572       H575 0.033       .   A
C572       H576 0.033       .   A
C573       H577 0.033       .   A
C573       H578 0.033       .   A
C573       H579 0.033       .   A
C573       O580 0.044       .   A
C542       C543 0.041       .   A
C542       C547 0.041       .   A
C543       C544 0.040       .   A
C543       N550 0.041       .   A
C544       C545 0.040       .   A
C544       H549 0.033       .   A
C545       C546 0.041       .   A
C545       N548 0.039       .   A
C546       C547 0.041       .   A
C546       O559 0.041       .   A
C547       C551 0.046       .   A
N548       N562 0.039       .   A
N550       H560 0.031       .   A
N550       H561 0.031       .   A
C551       H553 0.033       .   A
C551       H554 0.033       .   A
C551       H555 0.033       .   A
C552       H556 0.033       .   A
C552       H557 0.033       .   A
C552       H558 0.033       .   A
C552       O559 0.044       .   A
C521       C522 0.041       .   A
C521       C526 0.041       .   A
C522       C523 0.040       .   A
C522       N529 0.041       .   A
C523       C524 0.040       .   A
C523       H528 0.033       .   A
C524       C525 0.041       .   A
C524       N527 0.039       .   A
C525       C526 0.041       .   A
C525       O538 0.041       .   A
C526       C530 0.046       .   A
N527       N541 0.039       .   A
N529       H539 0.031       .   A
N529       H540 0.031       .   A
C530       H532 0.033       .   A
C530       H533 0.033       .   A
C530       H534 0.033       .   A
C531       H535 0.033       .   A
C531       H536 0.033       .   A
C531       H537 0.033       .   A
C531       O538 0.044       .   A
C500       C501 0.041       .   A
C500       C505 0.041       .   A
C501       C502 0.040       .   A
C501       N508 0.041       .   A
C502       C503 0.040       .   A
C502       H507 0.033       .   A
C503       C504 0.041       .   A
C503       N506 0.039       .   A
C504       C505 0.041       .   A
C504       O517 0.041       .   A
C505       C509 0.046       .   A
N506       N520 0.039       .   A
N508       H518 0.031       .   A
N508       H519 0.031       .   A
C509       H511 0.033       .   A
C509       H512 0.033       .   A
C509       H513 0.033       .   A
C510       H514 0.033       .   A
C510       H515 0.033       .   A
C510       H516 0.033       .   A
C510       O517 0.044       .   A
C479       C480 0.041       .   A
C479       C484 0.041       .   A
C480       C481 0.040       .   A
C480       N487 0.041       .   A
C481       C482 0.040       .   A
C481       H486 0.033       .   A
C482       C483 0.041       .   A
C482       N485 0.039       .   A
C483       C484 0.041       .   A
C483       O496 0.041       .   A
C484       C488 0.046       .   A
N485       N499 0.039       .   A
N487       H497 0.031       .   A
N487       H498 0.031       .   A
C488       H490 0.033       .   A
C488       H491 0.033       .   A
C488       H492 0.033       .   A
C489       H493 0.033       .   A
C489       H494 0.033       .   A
C489       H495 0.033       .   A
C489       O496 0.044       .   A
C458       C459 0.041       .   A
C458       C463 0.041       .   A
C459       C460 0.040       .   A
C459       N466 0.041       .   A
C460       C461 0.040       .   A
C460       H465 0.033       .   A
C461       C462 0.041       .   A
C461       N464 0.039       .   A
C462       C463 0.041       .   A
C462       O475 0.041       .   A
C463       C467 0.046       .   A
N464       N478 0.039       .   A
N466       H476 0.031       .   A
N466       H477 0.031       .   A
C467       H469 0.033       .   A
C467       H470 0.033       .   A
C467       H471 0.033       .   A
C468       H472 0.033       .   A
C468       H473 0.033       .   A
C468       H474 0.033       .   A
C468       O475 0.044       .   A
C437       C438 0.041       .   A
C437       C442 0.041       .   A
C438       C439 0.040       .   A
C438       N445 0.041       .   A
C439       C440 0.040       .   A
C439       H444 0.033       .   A
C440       C441 0.041       .   A
C440       N443 0.039       .   A
C441       C442 0.041       .   A
C441       O454 0.041       .   A
C442       C446 0.046       .   A
N443       N457 0.039       .   A
N445       H455 0.031       .   A
N445       H456 0.031       .   A
C446       H448 0.033       .   A
C446       H449 0.033       .   A
C446       H450 0.033       .   A
C447       H451 0.033       .   A
C447       H452 0.033       .   A
C447       H453 0.033       .   A
C447       O454 0.044       .   A
C416       C417 0.041       .   A
C416       C421 0.041       .   A
C417       C418 0.040       .   A
C417       N424 0.041       .   A
C418       C419 0.040       .   A
C418       H423 0.033       .   A
C419       C420 0.041       .   A
C419       N422 0.039       .   A
C420       C421 0.041       .   A
C420       O433 0.041       .   A
C421       C425 0.046       .   A
N422       N436 0.039       .   A
N424       H434 0.031       .   A
N424       H435 0.031       .   A
C425       H427 0.033       .   A
C425       H428 0.033       .   A
C425       H429 0.033       .   A
C426       H430 0.033       .   A
C426       H431 0.033       .   A
C426       H432 0.033       .   A
C426       O433 0.044       .   A
C395       C396 0.041       .   A
C395       C400 0.041       .   A
C396       C397 0.040       .   A
C396       N403 0.041       .   A
C397       C398 0.040       .   A
C397       H402 0.033       .   A
C398       C399 0.041       .   A
C398       N401 0.039       .   A
C399       C400 0.041       .   A
C399       O412 0.041       .   A
C400       C404 0.046       .   A
N401       N415 0.039       .   A
N403       H413 0.031       .   A
N403       H414 0.031       .   A
C404       H406 0.033       .   A
C404       H407 0.033       .   A
C404       H408 0.033       .   A
C405       H409 0.033       .   A
C405       H410 0.033       .   A
C405       H411 0.033       .   A
C405       O412 0.044       .   A
C374       C375 0.041       .   A
C374       C379 0.041       .   A
C375       C376 0.040       .   A
C375       N382 0.041       .   A
C376       C377 0.040       .   A
C376       H381 0.033       .   A
C377       C378 0.041       .   A
C377       N380 0.039       .   A
C378       C379 0.041       .   A
C378       O391 0.041       .   A
C379       C383 0.046       .   A
N380       N394 0.039       .   A
N382       H392 0.031       .   A
N382       H393 0.031       .   A
C383       H385 0.033       .   A
C383       H386 0.033       .   A
C383       H387 0.033       .   A
C384       H388 0.033       .   A
C384       H389 0.033       .   A
C384       H390 0.033       .   A
C384       O391 0.044       .   A
C353       C354 0.041       .   A
C353       C358 0.041       .   A
C354       C355 0.040       .   A
C354       N361 0.041       .   A
C355       C356 0.040       .   A
C355       H360 0.033       .   A
C356       C357 0.041       .   A
C356       N359 0.039       .   A
C357       C358 0.041       .   A
C357       O370 0.041       .   A
C358       C362 0.046       .   A
N359       N373 0.039       .   A
N361       H371 0.031       .   A
N361       H372 0.031       .   A
C362       H364 0.033       .   A
C362       H365 0.033       .   A
C362       H366 0.033       .   A
C363       H367 0.033       .   A
C363       H368 0.033       .   A
C363       H369 0.033       .   A
C363       O370 0.044       .   A
C332       C333 0.041       .   A
C332       C337 0.041       .   A
C333       C334 0.040       .   A
C333       N340 0.041       .   A
C334       C335 0.040       .   A
C334       H339 0.033       .   A
C335       C336 0.041       .   A
C335       N338 0.039       .   A
C336       C337 0.041       .   A
C336       O349 0.041       .   A
C337       C341 0.046       .   A
N338       N352 0.039       .   A
N340       H350 0.031       .   A
N340       H351 0.031       .   A
C341       H343 0.033       .   A
C341       H344 0.033       .   A
C341       H345 0.033       .   A
C342       H346 0.033       .   A
C342       H347 0.033       .   A
C342       H348 0.033       .   A
C342       O349 0.044       .   A
C311       C312 0.041       .   A
C311       C316 0.041       .   A
C312       C313 0.040       .   A
C312       N319 0.041       .   A
C313       C314 0.040       .   A
C313       H318 0.033       .   A
C314       C315 0.041       .   A
C314       N317 0.039       .   A
C315       C316 0.041       .   A
C315       O328 0.041       .   A
C316       C320 0.046       .   A
N317       N331 0.039       .   A
N319       H329 0.031       .   A
N319       H330 0.031       .   A
C320       H322 0.033       .   A
C320       H323 0.033       .   A
C320       H324 0.033       .   A
C321       H325 0.033       .   A
C321       H326 0.033       .   A
C321       H327 0.033       .   A
C321       O328 0.044       .   A
C290       C291 0.041       .   A
C290       C295 0.041       .   A
C291       C292 0.040       .   A
C291       N298 0.041       .   A
C292       C293 0.040       .   A
C292       H297 0.033       .   A
C293       C294 0.041       .   A
C293       N296 0.039       .   A
C294       C295 0.041       .   A
C294       O307 0.041       .   A
C295       C299 0.046       .   A
N296       N310 0.039       .   A
N298       H308 0.031       .   A
N298       H309 0.031       .   A
C299       H301 0.033       .   A
C299       H302 0.033       .   A
C299       H303 0.033       .   A
C300       H304 0.033       .   A
C300       H305 0.033       .   A
C300       H306 0.033       .   A
C300       O307 0.044       .   A
C269       C270 0.041       .   A
C269       C274 0.041       .   A
C270       C271 0.040       .   A
C270       N277 0.041       .   A
C271       C272 0.040       .   A
C271       H276 0.033       .   A
C272       C273 0.041       .   A
C272       N275 0.039       .   A
C273       C274 0.041       .   A
C273       O286 0.041       .   A
C274       C278 0.046       .   A
N275       N289 0.039       .   A
N277       H287 0.031       .   A
N277       H288 0.031       .   A
C278       H280 0.033       .   A
C278       H281 0.033       .   A
C278       H282 0.033       .   A
C279       H283 0.033       .   A
C279       H284 0.033       .   A
C279       H285 0.033       .   A
C279       O286 0.044       .   A
C248       C249 0.041       .   A
C248       C253 0.041       .   A
C249       C250 0.040       .   A
C249       N256 0.041       .   A
C250       C251 0.040       .   A
C250       H255 0.033       .   A
C251       C252 0.041       .   A
C251       N254 0.039       .   A
C252       C253 0.041       .   A
C252       O265 0.041       .   A
C253       C257 0.046       .   A
N254       N268 0.039       .   A
N256       H266 0.031       .   A
N256       H267 0.031       .   A
C257       H259 0.033       .   A
C257       H260 0.033       .   A
C257       H261 0.033       .   A
C258       H262 0.033       .   A
C258       H263 0.033       .   A
C258       H264 0.033       .   A
C258       O265 0.044       .   A
C227       C228 0.041       .   A
C227       C232 0.041       .   A
C228       C229 0.040       .   A
C228       N235 0.041       .   A
C229       C230 0.040       .   A
C229       H234 0.033       .   A
C230       C231 0.041       .   A
C230       N233 0.039       .   A
C231       C232 0.041       .   A
C231       O244 0.041       .   A
C232       C236 0.046       .   A
N233       N247 0.039       .   A
N235       H245 0.031       .   A
N235       H246 0.031       .   A
C236       H238 0.033       .   A
C236       H239 0.033       .   A
C236       H240 0.033       .   A
C237       H241 0.033       .   A
C237       H242 0.033       .   A
C237       H243 0.033       .   A
C237       O244 0.044       .   A
C206       C207 0.041       .   A
C206       C211 0.041       .   A
C207       C208 0.040       .   A
C207       N214 0.041       .   A
C208       C209 0.040       .   A
C208       H213 0.033       .   A
C209       C210 0.041       .   A
C209       N212 0.039       .   A
C210       C211 0.041       .   A
C210       O223 0.041       .   A
C211       C215 0.046       .   A
N212       N226 0.039       .   A
N214       H224 0.031       .   A
N214       H225 0.031       .   A
C215       H217 0.033       .   A
C215       H218 0.033       .   A
C215       H219 0.033       .   A
C216       H220 0.033       .   A
C216       H221 0.033       .   A
C216       H222 0.033       .   A
C216       O223 0.044       .   A
C185       C186 0.041       .   A
C185       C190 0.041       .   A
C186       C187 0.040       .   A
C186       N193 0.041       .   A
C187       C188 0.040       .   A
C187       H192 0.033       .   A
C188       C189 0.041       .   A
C188       N191 0.039       .   A
C189       C190 0.041       .   A
C189       O202 0.041       .   A
C190       C194 0.046       .   A
N191       N205 0.039       .   A
N193       H203 0.031       .   A
N193       H204 0.031       .   A
C194       H196 0.033       .   A
C194       H197 0.033       .   A
C194       H198 0.033       .   A
C195       H199 0.033       .   A
C195       H200 0.033       .   A
C195       H201 0.033       .   A
C195       O202 0.044       .   A
