data_pcu_v1-6c_Zn_1_Ch_1-29_fer_tobacco
_audit_creation_date              2021-02-03
_audit_creation_method            'tobacco_3.0'
_symmetry_space_group_name_H-M    'P1'
_symmetry_Int_Tables_number       1
_symmetry_cell_setting            triclinic
loop_
_symmetry_equiv_pos_as_xyz
  x,y,z
_cell_length_a                    42.16888100394259
_cell_length_b                    42.16888100394259
_cell_length_c                    42.16888100394259
_cell_angle_alpha                 90.0
_cell_angle_beta                  90.0
_cell_angle_gamma                 90.0
loop_
_atom_site_label
_atom_site_type_symbol
_atom_site_fract_x
_atom_site_fract_y
_atom_site_fract_z
_atom_site_charge
Zn1       Zn   -0.0265883271    0.0265883271    0.0265883271          1.4972
Zn2       Zn    0.0265883271    0.0265883271   -0.0265883271          1.4936
Zn3       Zn    0.0265883271   -0.0265883271    0.0265883271          1.4911
Zn4       Zn   -0.0265883271   -0.0265883271   -0.0265883271          1.4948
O5         O    0.0000000000    0.0000000000    0.0000000000         -2.2439
O6         O   -0.0195404758    0.0710618809    0.0195404758         -1.1503
O7         O    0.0710618809    0.0195404758   -0.0195404758         -1.1485
O8         O    0.0195404758   -0.0195404758    0.0710618809         -1.1436
O9         O    0.0195404758    0.0710618809   -0.0195404758         -1.1504
O10        O   -0.0195404758    0.0195404758    0.0710618809         -1.1464
O11        O    0.0710618809   -0.0195404758    0.0195404758         -1.1522
O12        O   -0.0195404758   -0.0710618809   -0.0195404758         -1.1461
O13        O    0.0195404758    0.0195404758   -0.0710618809         -1.1537
O14        O    0.0195404758   -0.0710618809    0.0195404758         -1.1476
O15        O   -0.0195404758   -0.0195404758   -0.0710618809         -1.1523
O16        O   -0.0710618809   -0.0195404758   -0.0195404758         -1.1514
O17        O   -0.0710618809    0.0195404758    0.0195404758         -1.1493
C18        C   -0.0000000000    0.0849631272    0.0000000000          0.3686
C19        C    0.0849631272   -0.0000000000   -0.0000000000          0.3735
C20        C   -0.0000000000    0.0000000000    0.0849631272          0.3631
C21        C    0.0000000000   -0.0849631272   -0.0000000000          0.3669
C22        C    0.0000000000   -0.0000000000   -0.0849631272          0.3783
C23        C   -0.0849631272    0.0000000000    0.0000000000          0.3688
Zn24      Zn    0.9734116729    0.0265883271    0.4734116729          1.4972
Zn25      Zn    1.0265883271   -0.0265883271    0.4734116729          1.4936
Zn26      Zn    1.0265883271    0.0265883271    0.5265883271          1.4911
Zn27      Zn    0.9734116729   -0.0265883271    0.5265883271          1.4948
O28        O    1.0000000000    0.0000000000    0.5000000000         -2.2439
O29        O    0.9804595242    0.0195404758    0.4289381191         -1.1503
O30        O    1.0710618809   -0.0195404758    0.4804595242         -1.1485
O31        O    1.0195404758    0.0710618809    0.5195404758         -1.1436
O32        O    1.0195404758   -0.0195404758    0.4289381191         -1.1504
O33        O    0.9804595242    0.0710618809    0.4804595242         -1.1464
O34        O    1.0710618809    0.0195404758    0.5195404758         -1.1522
O35        O    0.9804595242   -0.0195404758    0.5710618809         -1.1461
O36        O    1.0195404758   -0.0710618809    0.4804595242         -1.1537
O37        O    1.0195404758    0.0195404758    0.5710618809         -1.1476
O38        O    0.9804595242   -0.0710618809    0.5195404758         -1.1523
O39        O    0.9289381191   -0.0195404758    0.5195404758         -1.1514
O40        O    0.9289381191    0.0195404758    0.4804595242         -1.1493
C41        C    1.0000000000    0.0000000000    0.4150368728 0.36779999999999996
C42        C    1.0849631272    0.0000000000    0.5000000000          0.3735
C43        C    1.0000000000    0.0849631272    0.5000000000          0.3631
C44        C    1.0000000000    0.0000000000    0.5849631272          0.3669
C45        C    1.0000000000   -0.0849631272    0.5000000000          0.3783
C46        C    0.9150368728    0.0000000000    0.5000000000          0.3688
Zn47      Zn    1.0265883271    0.4734116729   -0.0265883271          1.4972
Zn48      Zn    0.9734116729    0.4734116729    0.0265883271          1.4936
Zn49      Zn    1.0265883271    0.5265883271    0.0265883271          1.4911
Zn50      Zn    0.9734116729    0.5265883271   -0.0265883271          1.4948
O51        O    1.0000000000    0.5000000000    0.0000000000         -2.2439
O52        O    1.0195404758    0.4289381191   -0.0195404758         -1.1503
O53        O    0.9804595242    0.4804595242    0.0710618809         -1.1485
O54        O    1.0710618809    0.5195404758    0.0195404758         -1.1436
O55        O    0.9804595242    0.4289381191    0.0195404758         -1.1504
O56        O    1.0710618809    0.4804595242   -0.0195404758         -1.1464
O57        O    1.0195404758    0.5195404758    0.0710618809         -1.1522
O58        O    0.9804595242    0.5710618809   -0.0195404758         -1.1461
O59        O    0.9289381191    0.4804595242    0.0195404758         -1.1537
O60        O    1.0195404758    0.5710618809    0.0195404758         -1.1476
O61        O    0.9289381191    0.5195404758   -0.0195404758         -1.1523
O62        O    0.9804595242    0.5195404758   -0.0710618809         -1.1514
O63        O    1.0195404758    0.4804595242   -0.0710618809         -1.1493
C64        C    1.0000000000    0.4150368728    0.0000000000          0.3686
C65        C    1.0000000000    0.5000000000    0.0849631272          0.3735
C66        C    1.0849631272    0.5000000000    0.0000000000          0.3631
C67        C    1.0000000000    0.5849631272    0.0000000000          0.3669
C68        C    0.9150368728    0.5000000000    0.0000000000          0.3783
C69        C    1.0000000000    0.5000000000   -0.0849631272          0.3688
Zn70      Zn    1.0265883271    0.5265883271    0.5265883271          1.4972
Zn71      Zn    0.9734116729    0.4734116729    0.5265883271          1.4936
Zn72      Zn    0.9734116729    0.5265883271    0.4734116729          1.4911
Zn73      Zn    1.0265883271    0.4734116729    0.4734116729          1.4948
O74        O    1.0000000000    0.5000000000    0.5000000000         -2.2439
O75        O    1.0195404758    0.5195404758    0.5710618809         -1.1503
O76        O    0.9289381191    0.4804595242    0.5195404758         -1.1485
O77        O    0.9804595242    0.5710618809    0.4804595242         -1.1436
O78        O    0.9804595242    0.4804595242    0.5710618809         -1.1504
O79        O    1.0195404758    0.5710618809    0.5195404758         -1.1464
O80        O    0.9289381191    0.5195404758    0.4804595242         -1.1522
O81        O    1.0195404758    0.4804595242    0.4289381191         -1.1461
O82        O    0.9804595242    0.4289381191    0.5195404758         -1.1537
O83        O    0.9804595242    0.5195404758    0.4289381191         -1.1476
O84        O    1.0195404758    0.4289381191    0.4804595242         -1.1523
O85        O    1.0710618809    0.4804595242    0.4804595242         -1.1514
O86        O    1.0710618809    0.5195404758    0.5195404758         -1.1493
C87        C    1.0000000000    0.5000000000    0.5849631272          0.3686
C88        C    0.9150368728    0.5000000000    0.5000000000          0.3735
C89        C    1.0000000000    0.5849631272    0.5000000000          0.3631
C90        C    1.0000000000    0.5000000000    0.4150368728          0.3669
C91        C    1.0000000000    0.4150368728    0.5000000000          0.3783
C92        C    1.0849631272    0.5000000000    0.5000000000          0.3688
Zn93      Zn    0.4734116729    0.9734116729   -0.0265883271          1.4972
Zn94      Zn    0.4734116729    1.0265883271    0.0265883271          1.4936
Zn95      Zn    0.5265883271    0.9734116729    0.0265883271          1.4911
Zn96      Zn    0.5265883271    1.0265883271   -0.0265883271          1.4948
O97        O    0.5000000000    1.0000000000    0.0000000000         -2.2439
O98        O    0.4289381191    0.9804595242   -0.0195404758         -1.1503
O99        O    0.4804595242    1.0195404758    0.0710618809         -1.1485
O100       O    0.5195404758    0.9289381191    0.0195404758         -1.1436
O101       O    0.4289381191    1.0195404758    0.0195404758         -1.1504
O102       O    0.4804595242    0.9289381191   -0.0195404758         -1.1464
O103       O    0.5195404758    0.9804595242    0.0710618809         -1.1522
O104       O    0.5710618809    1.0195404758   -0.0195404758         -1.1461
O105       O    0.4804595242    1.0710618809    0.0195404758         -1.1537
O106       O    0.5710618809    0.9804595242    0.0195404758         -1.1476
O107       O    0.5195404758    1.0710618809   -0.0195404758         -1.1523
O108       O    0.5195404758    1.0195404758   -0.0710618809         -1.1514
O109       O    0.4804595242    0.9804595242   -0.0710618809         -1.1493
C110       C    0.4150368728    1.0000000000    0.0000000000          0.3686
C111       C    0.5000000000    1.0000000000    0.0849631272          0.3735
C112       C    0.5000000000    0.9150368728    0.0000000000          0.3631
C113       C    0.5849631272    1.0000000000    0.0000000000          0.3669
C114       C    0.5000000000    1.0849631272    0.0000000000          0.3783
C115       C    0.5000000000    1.0000000000   -0.0849631272          0.3688
Zn116     Zn    0.4734116729    0.9734116729    0.5265883271          1.4972
Zn117     Zn    0.4734116729    1.0265883271    0.4734116729          1.4936
Zn118     Zn    0.5265883271    1.0265883271    0.5265883271          1.4911
Zn119     Zn    0.5265883271    0.9734116729    0.4734116729          1.4948
O120       O    0.5000000000    1.0000000000    0.5000000000         -2.2439
O121       O    0.4289381191    0.9804595242    0.5195404758         -1.1503
O122       O    0.4804595242    1.0710618809    0.4804595242         -1.1485
O123       O    0.5195404758    1.0195404758    0.5710618809         -1.1436
O124       O    0.4289381191    1.0195404758    0.4804595242         -1.1504
O125       O    0.4804595242    0.9804595242    0.5710618809         -1.1464
O126       O    0.5195404758    1.0710618809    0.5195404758         -1.1522
O127       O    0.5710618809    0.9804595242    0.4804595242         -1.1461
O128       O    0.4804595242    1.0195404758    0.4289381191         -1.1537
O129       O    0.5710618809    1.0195404758    0.5195404758         -1.1476
O130       O    0.5195404758    0.9804595242    0.4289381191         -1.1523
O131       O    0.5195404758    0.9289381191    0.4804595242         -1.1514
O132       O    0.4804595242    0.9289381191    0.5195404758         -1.1493
C133       C    0.4150368728    1.0000000000    0.5000000000          0.3686
C134       C    0.5000000000    1.0849631272    0.5000000000          0.3735
C135       C    0.5000000000    1.0000000000    0.5849631272          0.3631
C136       C    0.5849631272    1.0000000000    0.5000000000          0.3669
C137       C    0.5000000000    1.0000000000    0.4150368728          0.3783
C138       C    0.5000000000    0.9150368728    0.5000000000          0.3688
Zn139     Zn    0.4734116729    0.5265883271   -0.0265883271          1.4972
Zn140     Zn    0.4734116729    0.4734116729    0.0265883271          1.4936
Zn141     Zn    0.5265883271    0.4734116729   -0.0265883271          1.4911
Zn142     Zn    0.5265883271    0.5265883271    0.0265883271          1.4948
O143       O    0.5000000000    0.5000000000    0.0000000000         -2.2439
O144       O    0.4289381191    0.5195404758   -0.0195404758         -1.1503
O145       O    0.4804595242    0.4289381191    0.0195404758         -1.1485
O146       O    0.5195404758    0.4804595242   -0.0710618809         -1.1436
O147       O    0.4289381191    0.4804595242    0.0195404758         -1.1504
O148       O    0.4804595242    0.5195404758   -0.0710618809         -1.1464
O149       O    0.5195404758    0.4289381191   -0.0195404758         -1.1522
O150       O    0.5710618809    0.5195404758    0.0195404758         -1.1461
O151       O    0.4804595242    0.4804595242    0.0710618809         -1.1537
O152       O    0.5710618809    0.4804595242   -0.0195404758         -1.1476
O153       O    0.5195404758    0.5195404758    0.0710618809         -1.1523
O154       O    0.5195404758    0.5710618809    0.0195404758         -1.1514
O155       O    0.4804595242    0.5710618809   -0.0195404758         -1.1493
C156       C    0.4150368728    0.5000000000    0.0000000000          0.3686
C157       C    0.5000000000    0.4150368728    0.0000000000          0.3735
C158       C    0.5000000000    0.5000000000   -0.0849631272          0.3631
C159       C    0.5849631272    0.5000000000    0.0000000000          0.3669
C160       C    0.5000000000    0.5000000000    0.0849631272          0.3783
C161       C    0.5000000000    0.5849631272    0.0000000000          0.3688
Zn162     Zn    0.4734116729    0.4734116729    0.5265883271          1.4972
Zn163     Zn    0.4734116729    0.5265883271    0.4734116729          1.4936
Zn164     Zn    0.5265883271    0.5265883271    0.5265883271          1.4911
Zn165     Zn    0.5265883271    0.4734116729    0.4734116729          1.4948
O166       O    0.5000000000    0.5000000000    0.5000000000         -2.2439
O167       O    0.4289381191    0.4804595242    0.5195404758         -1.1503
O168       O    0.4804595242    0.5710618809    0.4804595242         -1.1485
O169       O    0.5195404758    0.5195404758    0.5710618809         -1.1436
O170       O    0.4289381191    0.5195404758    0.4804595242         -1.1504
O171       O    0.4804595242    0.4804595242    0.5710618809         -1.1464
O172       O    0.5195404758    0.5710618809    0.5195404758         -1.1522
O173       O    0.5710618809    0.4804595242    0.4804595242         -1.1461
O174       O    0.4804595242    0.5195404758    0.4289381191         -1.1537
O175       O    0.5710618809    0.5195404758    0.5195404758         -1.1476
O176       O    0.5195404758    0.4804595242    0.4289381191         -1.1523
O177       O    0.5195404758    0.4289381191    0.4804595242         -1.1514
O178       O    0.4804595242    0.4289381191    0.5195404758         -1.1493
C179       C    0.4150368728    0.5000000000    0.5000000000          0.3686
C180       C    0.5000000000    0.5849631272    0.5000000000          0.3735
C181       C    0.5000000000    0.5000000000    0.5849631272          0.3631
C182       C    0.5849631272    0.5000000000    0.5000000000          0.3669
C183       C    0.5000000000    0.5000000000    0.4150368728          0.3783
C184       C    0.5000000000    0.4150368728    0.5000000000          0.3688
C944       C    0.5000000000    0.5000000000   -0.1214829485          0.5928
C945       C    0.5196863548    0.5183891747   -0.1377373483          0.5898
C946       C    0.5189946331    0.5204335841   -0.1694036780          0.5891
C947       C    0.4978722095    0.5031966449   -0.1872886286          0.5919
C948       C    0.4781004442    0.4840855223   -0.1698301886         -0.4047
C949       C    0.4794035240    0.4830529202   -0.1380836801         -0.4045
C950       C    0.4969669100    0.5044146127   -0.2201900956          0.5918
N951       N    0.5400112095    0.5421662394   -0.1796841145          0.5841
H952       H    0.5369010594    0.5326623968   -0.1247709969          0.5874
H953       H    0.4634933121    0.4670631509   -0.1255357101         -0.4012
Cl954     Cl    0.4521505983    0.4553199343   -0.1835796977         -0.3962
H955       H    0.5556835705    0.5360583104   -0.1969598056         -0.4033
H956       H    0.5529521292    0.5542314534   -0.1632532066          0.5812
C957       C    0.5222308849    0.5130022918   -0.2377371506         -0.4015
C958       C    0.5224449285    0.5130491424   -0.2693469609         -0.4003
C959       C    0.4975173201    0.5043542576   -0.2866328618         -0.4055
C960       C    0.4715911263    0.4962713707   -0.2703423663          0.5872
C961       C    0.4713984483    0.4965899180   -0.2383090488          0.5857
C962       C    0.5028705759    0.5020112423   -0.3228646159         -0.3999
H963       H    0.5445876989    0.5194769668   -0.2808876815         -0.3938
H964       H    0.5451011026    0.5184547449   -0.2279323728         -0.3947
H965       H    0.4486759934    0.4911483722   -0.2279382466          0.5782
H966       H    0.4503081517    0.4887940802   -0.2828645341          0.5827
C967       C    0.4773373753    0.4981790064   -0.3490885281          0.5915
C968       C    0.5000000000    0.5000000000   -0.3785170515         -0.3978
N969       N    0.5239048720    0.5240382033   -0.3693826094         -0.4038
N970       N    0.5211105971    0.5290519974   -0.3352534922          0.5901
H971       H    0.5436537526    0.5286125934   -0.3266353288         -0.3991
H972       H    0.5172359131    0.5451489940   -0.3789660339          0.5783
H973       H    0.4649127122    0.4754825461   -0.3475297174         -0.3984
H974       H    0.5118830691    0.4769826967   -0.3803262418         -0.3756
H975       H    0.4601824398    0.5176214098   -0.3487641843          0.5693
H976       H    0.5180776510    0.4810757648   -0.3253641105         -0.3775
C911       C    0.5000000000    0.5000000000    0.1214829485          0.5928
C912       C    0.4733772393    0.5041161781    0.1377373483          0.5898
C913       C    0.4727980505    0.5061952714    0.1694036780          0.5891
C914       C    0.4999590664    0.5038398379    0.1872886286          0.5919
C915       C    0.5270588361    0.4991750561    0.1698301886         -0.4047
C916       C    0.5265631483    0.4975880534    0.1380836801         -0.4045
C917       C    0.5000216404    0.5053561153    0.2201900956          0.5918
N918       N    0.4431936706    0.5123259716    0.1796841145          0.5841
H919       H    0.4511143411    0.5062219535    0.1247709969          0.5874
H920       H    0.5487142153    0.4933292036    0.1255357101         -0.4012
Cl921     Cl    0.5646996938    0.4900088470    0.1835796977         -0.3962
H922       H    0.4336789995    0.4984551125    0.1969598056         -0.4033
H923       H    0.4257060180    0.5150127531    0.1632532066          0.5812
C924       C    0.4743067263    0.4982315205    0.2377371506         -0.4015
C925       C    0.4741034462    0.4981497472    0.2693469609         -0.4003
C926       C    0.4996007067    0.5049963810    0.2866328618         -0.4055
C927       C    0.5255787696    0.5129109770    0.2703423663          0.5872
C928       C    0.5255586917    0.5132827217    0.2383090488          0.5857
C929       C    0.4964952664    0.5000462994    0.3228646159         -0.3999
H930       H    0.4521840694    0.4909971161    0.2808876815         -0.3938
H931       H    0.4523352005    0.4898632376    0.2279323728         -0.3947
H932       H    0.5474019523    0.5215768368    0.2279382466          0.5782
H933       H    0.5473783235    0.5187122124    0.2828645341          0.5827
C934       C    0.5197556354    0.5112527972    0.3490885281          0.5915
C935       C    0.5000000000    0.5000000000    0.3785170515         -0.3978
N936       N    0.4667105631    0.5064102660    0.3693826094         -0.4038
N937       N    0.4661975174    0.5121271610    0.3352534922          0.5901
H938       H    0.4478131046    0.4990734144    0.3266353288         -0.3991
H939       H    0.4603381771    0.5276124639    0.3789660339          0.5783
H940       H    0.5428014243    0.4994887340    0.3475297174         -0.3984
H941       H    0.5031362211    0.4742868186    0.3803262418         -0.3756
H942       H    0.5229890542    0.5369791234    0.3487641843          0.5693
H943       H    0.4957122620    0.4741824972    0.3253641105         -0.3775
C878       C    0.5000000000    0.8785170515    0.5000000000          0.5928
C879       C    0.4762852818    0.8622626517    0.4872200763          0.5898
C880       C    0.4745689914    0.8305963220    0.4885286771          0.5891
C881       C    0.4976506368    0.8127113714    0.5030375192          0.5919
C882       C    0.5220767563    0.8301698114    0.5156677368         -0.4047
C883       C    0.5226389510    0.8619163199    0.5141030576         -0.4045
C884       C    0.4967857112    0.7798099044    0.5042844822          0.5918
N885       N    0.4472610371    0.8203158855    0.4755563827          0.5841
H886       H    0.4572604437    0.8752290031    0.4754673549          0.5874
H887       H    0.5428736364    0.8744642899    0.5240712608         -0.4012
Cl888     Cl    0.5576251244    0.8164203023    0.5310679667         -0.3962
H889       H    0.4480420356    0.8030401944    0.4587540097         -0.4033
H890       H    0.4316938464    0.8367467934    0.4671480914          0.5812
C891       C    0.4805769706    0.7622628494    0.4830879403         -0.4015
C892       C    0.4804641946    0.7306530391    0.4829000807         -0.4003
C893       C    0.4966670639    0.7133671382    0.5037436340         -0.4055
C894       C    0.5126090244    0.7296576337    0.5257289581          0.5872
C895       C    0.5123687250    0.7616909512    0.5260133054          0.5857
C896       C    0.4971770907    0.6771353841    0.4979223849         -0.3999
H897       H    0.4672992562    0.7191123185    0.4639711714         -0.3938
H898       H    0.4681038928    0.7720676272    0.4631581025         -0.3947
H899       H    0.5247842613    0.7720617534    0.5458066083          0.5782
H900       H    0.5264937537    0.7171354659    0.5435078549          0.5827
C901       C    0.5089656003    0.6509114719    0.5208932665          0.5915
C902       C    0.5000000000    0.6214829485    0.5000000000         -0.3978
N903       N    0.4695845925    0.6306173906    0.4850273212         -0.4038
N904       N    0.4657262272    0.6647465078    0.4892769237          0.5901
H905       H    0.4589407382    0.6733646712    0.4677747361         -0.3991
H906       H    0.4517106187    0.6210339661    0.4980910709          0.5783
H907       H    0.5344419924    0.6524702826    0.5254159885         -0.3984
H908       H    0.5180148252    0.6196737582    0.4813863046         -0.3756
H909       H    0.4960225415    0.6512358157    0.5433604890          0.5693
H910       H    0.5121572646    0.6746358895    0.4768239550         -0.3775
C845       C    0.5000000000    1.1214829485    0.5000000000          0.5928
C846       C    0.4732819399    1.1377373483    0.4965562264          0.5898
C847       C    0.4726505262    1.1694036780    0.4944923937          0.5891
C848       C    0.4998622862    1.1872886286    0.4961624141          0.5919
C849       C    0.5270710327    1.1698301886    0.5001425929         -0.4047
C850       C    0.5266155070    1.1380836801    0.5017415864         -0.4045
C851       C    0.4998866186    1.2201900956    0.4946450411          0.5918
N852       N    0.4429010131    1.1796841145    0.4891098976          0.5841
H853       H    0.4509730345    1.1247709969    0.4950123148          0.5874
H854       H    0.5488668906    1.1255357101    0.5054407072         -0.4012
Cl855     Cl    0.5649309878    1.1835796977    0.5083570528         -0.3962
H856       H    0.4337390168    1.1969598056    0.5032161912         -0.4033
H857       H    0.4253511900    1.1632532066    0.4868647920          0.5812
C858       C    0.4743594698    1.2377371506    0.5024155839         -0.4015
C859       C    0.4741583156    1.2693469609    0.5025024554         -0.4003
C860       C    0.4994748867    1.2866328618    0.4950152719         -0.4055
C861       C    0.5252451866    1.2703423663    0.4864483456          0.5872
C862       C    0.5252157443    1.2383090488    0.4860772253          0.5857
C863       C    0.4964952129    1.3228646159    0.5000420613         -0.3999
H864       H    0.4524262049    1.2808876815    0.5102053490         -0.3938
H865       H    0.4526058702    1.2279323728    0.5113350575         -0.3947
H866       H    0.5468429890    1.2279382466    0.4772351290          0.5782
H867       H    0.5468915781    1.2828645341    0.4800994388          0.5827
C868       C    0.5194657016    1.3490885281    0.4882527860          0.5915
C869       C    0.5000000000    1.3785170515    0.5000000000         -0.3978
N870       N    0.4665595536    1.3693826094    0.4944309184         -0.4038
N871       N    0.4659025617    1.3352534922    0.4887287727          0.5901
H872       H    0.4478530446    1.3266353288    0.5022417987         -0.3991
H873       H    0.4596547356    1.3789660339    0.4733960905          0.5783
H874       H    0.5428007114    1.3475297174    0.4994321814         -0.3984
H875       H    0.5037833926    1.3803262418    0.5256259541         -0.3756
H876       H    0.5220495934    1.3487641843    0.4624531278          0.5693
H877       H    0.4963644224    1.3253641105    0.5259173826         -0.3775
C812       C    0.5000000000    0.6214829485    0.0000000000          0.5928
C813       C    0.4835416579    0.6377373483    0.0213269146          0.5898
C814       C    0.4814413047    0.6694036780    0.0208303210          0.5891
C815       C    0.4966175914    0.6872886286   -0.0018180602          0.5919
C816       C    0.5137866641    0.6698301886   -0.0232978333         -0.4047
C817       C    0.5149371211    0.6380836801   -0.0220975281         -0.4045
C818       C    0.4953199593    0.7201900956   -0.0026049297          0.5918
N819       N    0.4617792420    0.6796841145    0.0437956881          0.5841
H820       H    0.4709488567    0.6247709969    0.0398064244          0.5874
H821       H    0.5293614322    0.6255357101   -0.0394395815         -0.4012
Cl822     Cl    0.5399870813    0.6835796977   -0.0518353822         -0.3962
H823       H    0.4693325472    0.6969598056    0.0588249022         -0.4033
H824       H    0.4509831684    0.6632532066    0.0578128770          0.5812
C825       C    0.4891437693    0.7377371506    0.0233541022         -0.4015
C826       C    0.4891172349    0.7693469609    0.0235716007         -0.4003
C827       C    0.4954317575    0.7866328618   -0.0020626243         -0.4055
C828       C    0.5010431736    0.7703423663   -0.0286335218          0.5872
C829       C    0.5007079334    0.7383090488   -0.0287954206          0.5857
C830       C    0.4982673388    0.8228646159    0.0030468323         -0.3999
H831       H    0.4847981150    0.7808876815    0.0462203183         -0.3938
H832       H    0.4858640491    0.7279323728    0.0466354153         -0.3947
H833       H    0.5039906766    0.7279382466   -0.0519285997          0.5782
H834       H    0.5064878941    0.7828645341   -0.0505248420          0.5827
C835       C    0.4996838253    0.8490885281   -0.0227334689          0.5915
C836       C    0.5000000000    0.8785170515    0.0000000000         -0.3978
N837       N    0.4783139369    0.8693826094    0.0260574901         -0.4038
N838       N    0.4730598011    0.8352534922    0.0237466113          0.5901
H839       H    0.4756151520    0.8266353288    0.0461487790         -0.3991
H840       H    0.4566699805    0.8789660339    0.0214013496          0.5783
H841       H    0.5211126255    0.8475297174   -0.0372354717         -0.3984
H842       H    0.5240318933    0.8803262418    0.0096680757         -0.3756
H843       H    0.4787157377    0.8487641843   -0.0379859496          0.5693
H844       H    0.5205388988    0.8253641105    0.0162197960         -0.3775
C779       C    0.5000000000    1.1214829485    0.0000000000          0.5928
C780       C    0.5001832345    1.1377373483    0.0269384620          0.5898
C781       C    0.4982231515    1.1694036780    0.0278418795          0.5891
C782       C    0.4962158582    1.1872886286    0.0006529181          0.5919
C783       C    0.4964981133    1.1698301886   -0.0268439552         -0.4047
C784       C    0.4981438646    1.1380836801   -0.0266077639         -0.4045
C785       C    0.4947090143    1.2201900956    0.0008330130          0.5918
N786       N    0.4968932691    1.1796841145    0.0580451278          0.5841
H787       H    0.5016556699    1.1247709969    0.0492521990          0.5874
H788       H    0.4988147735    1.1255357101   -0.0491545474         -0.4012
Cl789     Cl    0.4995427048    1.1835796977   -0.0654649860         -0.3962
H790       H    0.5121042455    1.1969598056    0.0652253710         -0.4033
H791       H    0.4970304185    1.1632532066    0.0757374419          0.5812
C792       C    0.5058442765    1.2377371506    0.0250821902         -0.4015
C793       C    0.5059574288    1.2693469609    0.0252698234         -0.4003
C794       C    0.4951312874    1.2866328618    0.0011911742         -0.4055
C795       C    0.4831741636    1.2703423663   -0.0231917660          0.5872
C796       C    0.4828103816    1.2383090488   -0.0231126467          0.5857
C797       C    0.5005133481    1.3228646159    0.0034672432         -0.3999
H798       H    0.5165149262    1.2808876815    0.0457675906         -0.3938
H799       H    0.5176101785    1.2279323728    0.0454375250         -0.3947
H800       H    0.4711381577    1.2279382466   -0.0433531894          0.5782
H801       H    0.4739698716    1.2828645341   -0.0437868113          0.5827
C802       C    0.4857399839    1.3490885281   -0.0177076965          0.5915
C803       C    0.5000000000    1.3785170515    0.0000000000         -0.3978
N804       N    0.4989819502    1.3693826094    0.0338857152         -0.4038
N805       N    0.4934200945    1.3352534922    0.0353041174          0.5901
H806       H    0.5092392706    1.3266353288    0.0513708721         -0.3991
H807       H    0.4790677188    1.3789660339    0.0435585578          0.5783
H808       H    0.4936772859    1.3475297174   -0.0423349335         -0.3984
H809       H    0.5248836689    1.3803262418   -0.0071976806         -0.3756
H810       H    0.4598272907    1.3487641843   -0.0167959999          0.5693
H811       H    0.5261708811    1.3253641105    0.0001145787         -0.3775
C746       C    0.5000000000    1.0000000000   -0.1214829485          0.5928
C747       C    0.4803136452    0.9816108253   -0.1377373483          0.5898
C748       C    0.4810053669    0.9795664159   -0.1694036780          0.5891
C749       C    0.5021277905    0.9968033551   -0.1872886286          0.5919
C750       C    0.5218995558    1.0159144777   -0.1698301886         -0.4047
C751       C    0.5205964760    1.0169470798   -0.1380836801         -0.4045
C752       C    0.5030330900    0.9955853873   -0.2201900956          0.5918
N753       N    0.4599887905    0.9578337606   -0.1796841145          0.5841
H754       H    0.4630989406    0.9673376032   -0.1247709969          0.5874
H755       H    0.5365066879    1.0329368491   -0.1255357101         -0.4012
Cl756     Cl    0.5478494017    1.0446800657   -0.1835796977         -0.3962
H757       H    0.4443164295    0.9639416896   -0.1969598056         -0.4033
H758       H    0.4470478708    0.9457685466   -0.1632532066          0.5812
C759       C    0.4777691151    0.9869977082   -0.2377371506         -0.4015
C760       C    0.4775550715    0.9869508576   -0.2693469609         -0.4003
C761       C    0.5024826799    0.9956457424   -0.2866328618         -0.4055
C762       C    0.5284088737    1.0037286293   -0.2703423663          0.5872
C763       C    0.5286015517    1.0034100820   -0.2383090488          0.5857
C764       C    0.4971294241    0.9979887577   -0.3228646159         -0.3999
H765       H    0.4554123011    0.9805230332   -0.2808876815         -0.3938
H766       H    0.4548988974    0.9815452551   -0.2279323728         -0.3947
H767       H    0.5513240066    1.0088516278   -0.2279382466          0.5782
H768       H    0.5496918483    1.0112059198   -0.2828645341          0.5827
C769       C    0.5226626247    1.0018209936   -0.3490885281          0.5915
C770       C    0.5000000000    1.0000000000   -0.3785170515         -0.3978
N771       N    0.4760951280    0.9759617967   -0.3693826094         -0.4038
N772       N    0.4788894029    0.9709480026   -0.3352534922          0.5901
H773       H    0.4563462474    0.9713874066   -0.3266353288         -0.3991
H774       H    0.4827640869    0.9548510060   -0.3789660339          0.5783
H775       H    0.5350872878    1.0245174539   -0.3475297174         -0.3984
H776       H    0.4881169309    1.0230173033   -0.3803262418         -0.3756
H777       H    0.5398175602    0.9823785902   -0.3487641843          0.5693
H778       H    0.4819223490    1.0189242352   -0.3253641105         -0.3775
C713       C    0.5000000000    1.0000000000    0.3785170515          0.5928
C714       C    0.4733772393    0.9958838219    0.3622626517          0.5898
C715       C    0.4727980505    0.9938047286    0.3305963220          0.5891
C716       C    0.4999590664    0.9961601621    0.3127113714          0.5919
C717       C    0.5270588361    1.0008249439    0.3301698114         -0.4047
C718       C    0.5265631483    1.0024119466    0.3619163199         -0.4045
C719       C    0.5000216404    0.9946438847    0.2798099044          0.5918
N720       N    0.4431936706    0.9876740284    0.3203158855          0.5841
H721       H    0.4511143411    0.9937780465    0.3752290031          0.5874
H722       H    0.5487142153    1.0066707964    0.3744642899         -0.4012
Cl723     Cl    0.5646996938    1.0099911530    0.3164203023         -0.3962
H724       H    0.4336789995    1.0015448875    0.3030401944         -0.4033
H725       H    0.4257060180    0.9849872469    0.3367467934          0.5812
C726       C    0.4743067263    1.0017684795    0.2622628494         -0.4015
C727       C    0.4741034462    1.0018502528    0.2306530391         -0.4003
C728       C    0.4996007067    0.9950036190    0.2133671382         -0.4055
C729       C    0.5255787696    0.9870890230    0.2296576337          0.5872
C730       C    0.5255586917    0.9867172783    0.2616909512          0.5857
C731       C    0.4964952664    0.9999537006    0.1771353841         -0.3999
H732       H    0.4521840694    1.0090028839    0.2191123185         -0.3938
H733       H    0.4523352005    1.0101367624    0.2720676272         -0.3947
H734       H    0.5474019523    0.9784231632    0.2720617534          0.5782
H735       H    0.5473783235    0.9812877876    0.2171354659          0.5827
C736       C    0.5197556354    0.9887472028    0.1509114719          0.5915
C737       C    0.5000000000    1.0000000000    0.1214829485         -0.3978
N738       N    0.4667105631    0.9935897340    0.1306173906         -0.4038
N739       N    0.4661975174    0.9878728390    0.1647465078          0.5901
H740       H    0.4478131046    1.0009265856    0.1733646712         -0.3991
H741       H    0.4603381771    0.9723875361    0.1210339661          0.5783
H742       H    0.5428014243    1.0005112660    0.1524702826         -0.3984
H743       H    0.5031362211    1.0257131814    0.1196737582         -0.3756
H744       H    0.5229890542    0.9630208766    0.1512358157          0.5693
H745       H    0.4957122620    1.0258175028    0.1746358895         -0.3775
C680       C    0.8785170515    0.5000000000    0.5000000000          0.5928
C681       C    0.8622626517    0.4776065267    0.5149748678          0.5898
C682       C    0.8305963220    0.4757736895    0.5138352204          0.5891
C683       C    0.8127113714    0.4973727172    0.4971993901          0.5919
C684       C    0.8301698114    0.5204885958    0.4823059732         -0.4047
C685       C    0.8619163199    0.5211968821    0.4838101721         -0.4045
C686       C    0.7798099044    0.4963932500    0.4960402280          0.5918
N687       N    0.8203158855    0.4498215028    0.5293429218          0.5841
H688       H    0.8752290031    0.4597841484    0.5284816719          0.5874
H689       H    0.8744642899    0.5403931537    0.4719648893         -0.4012
Cl690     Cl    0.8164203023    0.5544132952    0.4635985327         -0.3962
H691       H    0.8030401944    0.4521950800    0.5459951237         -0.4033
H692       H    0.8367467934    0.4351234383    0.5391919668          0.5812
C693       C    0.7622628494    0.4822713329    0.5186806369         -0.4015
C694       C    0.7306530391    0.4821769122    0.5188783600         -0.4003
C695       C    0.7133671382    0.4963265161    0.4965899011         -0.4055
C696       C    0.7296576337    0.5101079306    0.4731896192          0.5872
C697       C    0.7616909512    0.5098417068    0.4729293845          0.5857
C698       C    0.6771353841    0.4973872153    0.5023363770         -0.3999
H699       H    0.7191123185    0.4708696234    0.5389722503         -0.3938
H700       H    0.7720676272    0.4717478573    0.5397052075         -0.3947
H701       H    0.7720617534    0.5203208709    0.4520461975          0.5782
H702       H    0.7171354659    0.5222409987    0.4541721656          0.5827
C703       C    0.6509114719    0.5069403400    0.4783495438          0.5915
C704       C    0.6214829485    0.5000000000    0.5000000000         -0.3978
N705       N    0.6306173906    0.4711444352    0.5177942267         -0.4038
N706       N    0.6647465078    0.4668998346    0.5139303595          0.5901
H707       H    0.6733646712    0.4621875906    0.5359798876         -0.3991
H708       H    0.6210339661    0.4521103220    0.5064874573          0.5783
H709       H    0.6524702826    0.5318718983    0.4714271910         -0.3984
H710       H    0.6196737582    0.5197015344    0.5168182378         -0.3756
H711       H    0.6512358157    0.4919215783    0.4572134216          0.5693
H712       H    0.6746358895    0.5143038541    0.5219163844         -0.3775
C647       C    1.1214829485    0.5000000000    0.5000000000          0.5928
C648       C    1.1377373483    0.5149748678    0.4776065267          0.5898
C649       C    1.1694036780    0.5138352204    0.4757736895          0.5891
C650       C    1.1872886286    0.4971993901    0.4973727172          0.5919
C651       C    1.1698301886    0.4823059732    0.5204885958         -0.4047
C652       C    1.1380836801    0.4838101721    0.5211968821         -0.4045
C653       C    1.2201900956    0.4960402280    0.4963932500          0.5918
N654       N    1.1796841145    0.5293429218    0.4498215028          0.5841
H655       H    1.1247709969    0.5284816719    0.4597841484          0.5874
H656       H    1.1255357101    0.4719648893    0.5403931537         -0.4012
Cl657     Cl    1.1835796977    0.4635985327    0.5544132952         -0.3962
H658       H    1.1969598056    0.5459951237    0.4521950800         -0.4033
H659       H    1.1632532066    0.5391919668    0.4351234383          0.5812
C660       C    1.2377371506    0.5186806369    0.4822713329         -0.4015
C661       C    1.2693469609    0.5188783600    0.4821769122         -0.4003
C662       C    1.2866328618    0.4965899011    0.4963265161         -0.4055
C663       C    1.2703423663    0.4731896192    0.5101079306          0.5872
C664       C    1.2383090488    0.4729293845    0.5098417068          0.5857
C665       C    1.3228646159    0.5023363770    0.4973872153         -0.3999
H666       H    1.2808876815    0.5389722503    0.4708696234         -0.3938
H667       H    1.2279323728    0.5397052075    0.4717478573         -0.3947
H668       H    1.2279382466    0.4520461975    0.5203208709          0.5782
H669       H    1.2828645341    0.4541721656    0.5222409987          0.5827
C670       C    1.3490885281    0.4783495438    0.5069403400          0.5915
C671       C    1.3785170515    0.5000000000    0.5000000000         -0.3978
N672       N    1.3693826094    0.5177942267    0.4711444352         -0.4038
N673       N    1.3352534922    0.5139303595    0.4668998346          0.5901
H674       H    1.3266353288    0.5359798876    0.4621875906         -0.3991
H675       H    1.3789660339    0.5064874573    0.4521103220          0.5783
H676       H    1.3475297174    0.4714271910    0.5318718983         -0.3984
H677       H    1.3803262418    0.5168182378    0.5197015344         -0.3756
H678       H    1.3487641843    0.4572134216    0.4919215783          0.5693
H679       H    1.3253641105    0.5219163844    0.5143038541         -0.3775
C614       C    0.8785170515    0.5000000000    0.0000000000          0.5928
C615       C    0.8622626517    0.5234670557    0.0132291952          0.5898
C616       C    0.8305963220    0.5232768555    0.0153790586          0.5891
C617       C    0.8127113714    0.4986858852    0.0036082036          0.5919
C618       C    0.8301698114    0.4749656097   -0.0103024485         -0.4047
C619       C    0.8619163199    0.4759884911   -0.0116131726         -0.4045
C620       C    0.7798099044    0.4980932742    0.0050052809          0.5918
N621       N    0.8203158855    0.5488249394    0.0315438413          0.5841
H622       H    0.8752290031    0.5435617048    0.0230412288          0.5874
H623       H    0.8744642899    0.4567568395   -0.0234009265         -0.4012
Cl624     Cl    0.8164203023    0.4429651480   -0.0321387488         -0.3962
H625       H    0.8030401944    0.5626153650    0.0219129608         -0.4033
H626       H    0.8367467934    0.5642456986    0.0402177664          0.5812
C627       C    0.7622628494    0.5246697584    0.0073942447         -0.4015
C628       C    0.7306530391    0.5248888139    0.0073893084         -0.4003
C629       C    0.7133671382    0.4986139368    0.0048168545         -0.4055
C630       C    0.7296576337    0.4715129205    0.0030745862          0.5872
C631       C    0.7616909512    0.4714007799    0.0034295815          0.5857
C632       C    0.6771353841    0.5032638481    0.0012777313         -0.3999
H633       H    0.7191123185    0.5479228481    0.0084152102         -0.3938
H634       H    0.7720676272    0.5481807636    0.0073007594         -0.3947
H635       H    0.7720617534    0.4480359434    0.0034988279          0.5782
H636       H    0.7171354659    0.4490670047    0.0008260870          0.5827
C637       C    0.6509114719    0.4775469421    0.0035736205          0.5915
C638       C    0.6214829485    0.5000000000    0.0000000000         -0.3978
N639       N    0.6306173906    0.5288985420    0.0177243446         -0.4038
N640       N    0.6647465078    0.5273651705    0.0232556081          0.5901
H641       H    0.6733646712    0.5491691825    0.0175134836         -0.3991
H642       H    0.6210339661    0.5273949891    0.0398123465          0.5783
H643       H    0.6524702826    0.4601213048   -0.0155535521         -0.3984
H644       H    0.6196737582    0.5061211579   -0.0251701213         -0.3756
H645       H    0.6512358157    0.4654596724    0.0265125999          0.5693
H646       H    0.6746358895    0.5131061427   -0.0226529726         -0.3775
C581       C    1.1214829485    0.5000000000    0.0000000000          0.5928
C582       C    1.1377373483    0.5016728237   -0.0268870967          0.5898
C583       C    1.1694036780    0.4997657055   -0.0278975366          0.5891
C584       C    1.1872886286    0.4962577607   -0.0008612060          0.5919
C585       C    1.1698301886    0.4950188303    0.0266091919         -0.4047
C586       C    1.1380836801    0.4966751256    0.0264643826         -0.4045
C587       C    1.2201900956    0.4947631835   -0.0011243635          0.5918
N588       N    1.1796841145    0.5001082918   -0.0581281077          0.5841
H589       H    1.1247709969    0.5043770982   -0.0490852459          0.5874
H590       H    1.1255357101    0.4960980260    0.0490137623         -0.4012
Cl591     Cl    1.1835796977    0.4959227713    0.0653394959         -0.3962
H592       H    1.1969598056    0.5156931003   -0.0644560966         -0.4033
H593       H    1.1632532066    0.5012237297   -0.0757857573          0.5812
C594       C    1.2377371506    0.5072225373   -0.0247205742         -0.4015
C595       C    1.2693469609    0.5073458938   -0.0249016622         -0.4003
C596       C    1.2866328618    0.4952046189   -0.0014586221         -0.4055
C597       C    1.2703423663    0.4819172634    0.0222256927          0.5872
C598       C    1.2383090488    0.4815584140    0.0221265751          0.5857
C599       C    1.3228646159    0.5007043232   -0.0034335449         -0.3999
H600       H    1.2808876815    0.5190208901   -0.0447841587         -0.3938
H601       H    1.2279323728    0.5200962113   -0.0443940239         -0.3947
H602       H    1.2279382466    0.4687846235    0.0416905894          0.5782
H603       H    1.2828645341    0.4715880212    0.0422801595          0.5827
C604       C    1.3490885281    0.4847824608    0.0168919233          0.5915
C605       C    1.3785170515    0.5000000000    0.0000000000         -0.3978
N606       N    1.3693826094    0.5008576057   -0.0338901554         -0.4038
N607       N    1.3352534922    0.4953827095   -0.0356139929          0.5901
H608       H    1.3266353288    0.5120662678   -0.0507812544         -0.3991
H609       H    1.3789660339    0.4815088247   -0.0446495777          0.5783
H610       H    1.3475297174    0.4913455700    0.0419204503         -0.3984
H611       H    1.3803262418    0.5244475048    0.0085628904         -0.3756
H612       H    1.3487641843    0.4589598514    0.0145484841          0.5693
H613       H    1.3253641105    0.5261371617    0.0013330142         -0.3775
C548       C    1.0000000000    0.5000000000   -0.1214829485          0.5928
C549       C    1.0266227607    0.5041161781   -0.1377373483          0.5898
C550       C    1.0272019495    0.5061952714   -0.1694036780          0.5891
C551       C    1.0000409336    0.5038398379   -0.1872886286          0.5919
C552       C    0.9729411639    0.4991750561   -0.1698301886         -0.4047
C553       C    0.9734368517    0.4975880534   -0.1380836801         -0.4045
C554       C    0.9999783596    0.5053561153   -0.2201900956          0.5918
N555       N    1.0568063294    0.5123259716   -0.1796841145          0.5841
H556       H    1.0488856589    0.5062219535   -0.1247709969          0.5874
H557       H    0.9512857847    0.4933292036   -0.1255357101         -0.4012
Cl558     Cl    0.9353003062    0.4900088470   -0.1835796977         -0.3962
H559       H    1.0663210005    0.4984551125   -0.1969598056         -0.4033
H560       H    1.0742939820    0.5150127531   -0.1632532066          0.5812
C561       C    1.0256932737    0.4982315205   -0.2377371506         -0.4015
C562       C    1.0258965538    0.4981497472   -0.2693469609         -0.4003
C563       C    1.0003992933    0.5049963810   -0.2866328618         -0.4055
C564       C    0.9744212304    0.5129109770   -0.2703423663          0.5872
C565       C    0.9744413083    0.5132827217   -0.2383090488          0.5857
C566       C    1.0035047336    0.5000462994   -0.3228646159         -0.3999
H567       H    1.0478159306    0.4909971161   -0.2808876815         -0.3938
H568       H    1.0476647995    0.4898632376   -0.2279323728         -0.3947
H569       H    0.9525980477    0.5215768368   -0.2279382466          0.5782
H570       H    0.9526216765    0.5187122124   -0.2828645341          0.5827
C571       C    0.9802443646    0.5112527972   -0.3490885281          0.5915
C572       C    1.0000000000    0.5000000000   -0.3785170515         -0.3978
N573       N    1.0332894369    0.5064102660   -0.3693826094         -0.4038
N574       N    1.0338024826    0.5121271610   -0.3352534922          0.5901
H575       H    1.0521868954    0.4990734144   -0.3266353288         -0.3991
H576       H    1.0396618229    0.5276124639   -0.3789660339          0.5783
H577       H    0.9571985757    0.4994887340   -0.3475297174         -0.3984
H578       H    0.9968637789    0.4742868186   -0.3803262418         -0.3756
H579       H    0.9770109458    0.5369791234   -0.3487641843          0.5693
H580       H    1.0042877380    0.4741824972   -0.3253641105         -0.3775
C515       C    1.0000000000    0.5000000000    0.1214829485          0.5928
C516       C    0.9733772393    0.5041161781    0.1377373483          0.5898
C517       C    0.9727980505    0.5061952714    0.1694036780          0.5891
C518       C    0.9999590664    0.5038398379    0.1872886286          0.5919
C519       C    1.0270588361    0.4991750561    0.1698301886         -0.4047
C520       C    1.0265631483    0.4975880534    0.1380836801         -0.4045
C521       C    1.0000216404    0.5053561153    0.2201900956          0.5918
N522       N    0.9431936706    0.5123259716    0.1796841145          0.5841
H523       H    0.9511143411    0.5062219535    0.1247709969          0.5874
H524       H    1.0487142153    0.4933292036    0.1255357101         -0.4012
Cl525     Cl    1.0646996938    0.4900088470    0.1835796977         -0.3962
H526       H    0.9336789995    0.4984551125    0.1969598056         -0.4033
H527       H    0.9257060180    0.5150127531    0.1632532066          0.5812
C528       C    0.9743067263    0.4982315205    0.2377371506         -0.4015
C529       C    0.9741034462    0.4981497472    0.2693469609         -0.4003
C530       C    0.9996007067    0.5049963810    0.2866328618         -0.4055
C531       C    1.0255787696    0.5129109770    0.2703423663          0.5872
C532       C    1.0255586917    0.5132827217    0.2383090488          0.5857
C533       C    0.9964952664    0.5000462994    0.3228646159         -0.3999
H534       H    0.9521840694    0.4909971161    0.2808876815         -0.3938
H535       H    0.9523352005    0.4898632376    0.2279323728         -0.3947
H536       H    1.0474019523    0.5215768368    0.2279382466          0.5782
H537       H    1.0473783235    0.5187122124    0.2828645341          0.5827
C538       C    1.0197556354    0.5112527972    0.3490885281          0.5915
C539       C    1.0000000000    0.5000000000    0.3785170515         -0.3978
N540       N    0.9667105631    0.5064102660    0.3693826094         -0.4038
N541       N    0.9661975174    0.5121271610    0.3352534922          0.5901
H542       H    0.9478131046    0.4990734144    0.3266353288         -0.3991
H543       H    0.9603381771    0.5276124639    0.3789660339          0.5783
H544       H    1.0428014243    0.4994887340    0.3475297174         -0.3984
H545       H    1.0031362211    0.4742868186    0.3803262418         -0.3756
H546       H    1.0229890542    0.5369791234    0.3487641843          0.5693
H547       H    0.9957122620    0.4741824972    0.3253641105         -0.3775
C482       C    1.0000000000   -0.1214829485    0.5000000000          0.5928
C483       C    1.0266227607   -0.1377373483    0.4958838219          0.5898
C484       C    1.0272019495   -0.1694036780    0.4938047286          0.5891
C485       C    1.0000409336   -0.1872886286    0.4961601621          0.5919
C486       C    0.9729411639   -0.1698301886    0.5008249439         -0.4047
C487       C    0.9734368517   -0.1380836801    0.5024119466         -0.4045
C488       C    0.9999783596   -0.2201900956    0.4946438847          0.5918
N489       N    1.0568063294   -0.1796841145    0.4876740284          0.5841
H490       H    1.0488856589   -0.1247709969    0.4937780465          0.5874
H491       H    0.9512857847   -0.1255357101    0.5066707964         -0.4012
Cl492     Cl    0.9353003062   -0.1835796977    0.5099911530         -0.3962
H493       H    1.0663210005   -0.1969598056    0.5015448875         -0.4033
H494       H    1.0742939820   -0.1632532066    0.4849872469          0.5812
C495       C    1.0256932737   -0.2377371506    0.5017684795         -0.4015
C496       C    1.0258965538   -0.2693469609    0.5018502528         -0.4003
C497       C    1.0003992933   -0.2866328618    0.4950036190         -0.4055
C498       C    0.9744212304   -0.2703423663    0.4870890230          0.5872
C499       C    0.9744413083   -0.2383090488    0.4867172783          0.5857
C500       C    1.0035047336   -0.3228646159    0.4999537006         -0.3999
H501       H    1.0478159306   -0.2808876815    0.5090028839         -0.3938
H502       H    1.0476647995   -0.2279323728    0.5101367624         -0.3947
H503       H    0.9525980477   -0.2279382466    0.4784231632          0.5782
H504       H    0.9526216765   -0.2828645341    0.4812877876          0.5827
C505       C    0.9802443646   -0.3490885281    0.4887472028          0.5915
C506       C    1.0000000000   -0.3785170515    0.5000000000         -0.3978
N507       N    1.0332894369   -0.3693826094    0.4935897340         -0.4038
N508       N    1.0338024826   -0.3352534922    0.4878728390          0.5901
H509       H    1.0521868954   -0.3266353288    0.5009265856         -0.3991
H510       H    1.0396618229   -0.3789660339    0.4723875361          0.5783
H511       H    0.9571985757   -0.3475297174    0.5005112660         -0.3984
H512       H    0.9968637789   -0.3803262418    0.5257131814         -0.3756
H513       H    0.9770109458   -0.3487641843    0.4630208766          0.5693
H514       H    1.0042877380   -0.3253641105    0.5258175028         -0.3775
C449       C    1.0000000000    0.1214829485    0.5000000000          0.5928
C450       C    1.0258394080    0.1377373483    0.5076183531          0.5898
C451       C    1.0261371043    0.1694036780    0.5097559839          0.5891
C452       C    0.9995301790    0.1872886286    0.5038112070          0.5919
C453       C    0.9732909150    0.1698301886    0.4955857140         -0.4047
C454       C    0.9739931489    0.1380836801    0.4940786800         -0.4045
C455       C    0.9992666165    0.2201900956    0.5053057128          0.5918
N456       N    1.0546639045    0.1796841145    0.5197673008          0.5841
H457       H    1.0476248624    0.1247709969    0.5126646291          0.5874
H458       H    0.9526047202    0.1255357101    0.4869132989         -0.4012
Cl459     Cl    0.9372024266    0.1835796977    0.4814976140         -0.3962
H460       H    1.0659378650    0.1969598056    0.5072842118         -0.4033
H461       H    1.0716392579    0.1632532066    0.5247547016          0.5812
C462       C    1.0257003576    0.2377371506    0.5016623640         -0.4015
C463       C    1.0259127032    0.2693469609    0.5016083363         -0.4003
C464       C    0.9997316311    0.2866328618    0.5050051210         -0.4055
C465       C    0.9729320692    0.2703423663    0.5093964834          0.5872
C466       C    0.9729025565    0.2383090488    0.5097675982          0.5857
C467       C    1.0034674812    0.3228646159    0.5005117379         -0.3999
H468       H    1.0485883123    0.2808876815    0.4974326970         -0.3938
H469       H    1.0485892375    0.2279323728    0.4962887913         -0.3947
H470       H    0.9501506621    0.2279382466    0.5150847103          0.5782
H471       H    0.9505548473    0.2828645341    0.5122486451          0.5827
C472       C    0.9789239386    0.3490885281    0.5085270283          0.5915
C473       C    1.0000000000    0.3785170515    0.5000000000         -0.3978
N474       N    1.0321419989    0.3693826094    0.5107782200         -0.4038
N475       N    1.0318906022    0.3352534922    0.5165125817          0.5901
H476       H    1.0518469905    0.3266353288    0.5060183213         -0.3991
H477       H    1.0356396439    0.3789660339    0.5326393036          0.5783
H478       H    0.9576463205    0.3475297174    0.4938041029         -0.3984
H479       H    1.0003094049    0.3803262418    0.4740981111         -0.3756
H480       H    0.9722996660    0.3487641843    0.5335952925          0.5693
H481       H    1.0076813557    0.3253641105    0.4749815084         -0.3775
C416       C    0.8785170515   -0.0000000000    0.5000000000          0.5928
C417       C    0.8622626517   -0.0025887743    0.5268144095          0.5898
C418       C    0.8305963220   -0.0046313901    0.5275114098          0.5891
C419       C    0.8127113714   -0.0038312306    0.5002601971          0.5919
C420       C    0.8301698114   -0.0007219948    0.4729382213         -0.4047
C421       C    0.8619163199    0.0008907303    0.4733424507         -0.4045
C422       C    0.7798099044   -0.0053486067    0.5002843345          0.5918
N423       N    0.8203158855   -0.0090610884    0.5574176394          0.5841
H424       H    0.8752290031   -0.0034194623    0.5491612411          0.5874
H425       H    0.8744642899    0.0038773652    0.4509842848         -0.4012
Cl426     Cl    0.8164203023    0.0062792154    0.4348352475         -0.3962
H427       H    0.8030401944    0.0053305991    0.5661244773         -0.4033
H428       H    0.8367467934   -0.0107445943    0.5750302087          0.5812
C429       C    0.7622628494    0.0032331836    0.5255503103         -0.4015
C430       C    0.7306530391    0.0033264347    0.5257485877         -0.4003
C431       C    0.7133671382   -0.0049654161    0.5006840331         -0.4055
C432       C    0.7296576337   -0.0143509488    0.4752004627          0.5872
C433       C    0.7616909512   -0.0147209396    0.4752417417          0.5857
C434       C    0.6771353841    0.0001539655    0.5035016562         -0.3999
H435       H    0.7191123185    0.0117194156    0.5472236215         -0.3938
H436       H    0.7720676272    0.0128428103    0.5470079705         -0.3947
H437       H    0.7720617534   -0.0242491932    0.4539079009          0.5782
H438       H    0.7171354659   -0.0213878961    0.4537678647          0.5827
C439       C    0.6509114719   -0.0123628606    0.4809193750          0.5915
C440       C    0.6214829485   -0.0000000000    0.5000000000         -0.3978
N441       N    0.6306173906   -0.0044983185    0.5336012389         -0.4038
N442       N    0.6647465078   -0.0101765747    0.5344399941          0.5901
H443       H    0.6733646712    0.0039059713    0.5520487657         -0.3991
H444       H    0.6210339661   -0.0253019117    0.5411742835          0.5783
H445       H    0.6524702826   -0.0019343721    0.4572392526         -0.3984
H446       H    0.6196737582    0.0254920606    0.4954001708         -0.3756
H447       H    0.6512358157   -0.0382318763    0.4791607146          0.5693
H448       H    0.6746358895    0.0260202657    0.5028060502         -0.3775
C383       C    1.1214829485   -0.0000000000    0.5000000000          0.5928
C384       C    1.1377373483   -0.0224436840    0.5148995086          0.5898
C385       C    1.1694036780   -0.0220977618    0.5170298669          0.5891
C386       C    1.1872886286    0.0015728391    0.5035031711          0.5919
C387       C    1.1698301886    0.0242195538    0.4879056064         -0.4047
C388       C    1.1380836801    0.0231041299    0.4866726777         -0.4045
C389       C    1.2201900956    0.0022654052    0.5048534914          0.5918
N390       N    1.1796841145   -0.0464036511    0.5350084248          0.5841
H391       H    1.1247709969   -0.0417721933    0.5261458260          0.5874
H392       H    1.1255357101    0.0414283529    0.4735185751         -0.4012
Cl393     Cl    1.1835796977    0.0545486282    0.4638016482         -0.3962
H394       H    1.1969598056   -0.0608574683    0.5264051194         -0.4033
H395       H    1.1632532066   -0.0611533304    0.5447800034          0.5812
C396       C    1.2377371506   -0.0240672173    0.5091673815         -0.4015
C397       C    1.2693469609   -0.0242860524    0.5091783765         -0.4003
C398       C    1.2866328618    0.0017324268    0.5047033983         -0.4055
C399       C    1.2703423663    0.0286351883    0.5009963777          0.5872
C400       C    1.2383090488    0.0287728290    0.5013422856          0.5857
C401       C    1.3228646159   -0.0031623699    0.5015115284         -0.3999
H402       H    1.2808876815   -0.0471846405    0.5118753877         -0.3938
H403       H    1.2279323728   -0.0475228583    0.5107826253         -0.3947
H404       H    1.2279382466    0.0520809263    0.4997134887          0.5782
H405       H    1.2828645341    0.0508583700    0.4971227383          0.5827
C406       C    1.3490885281    0.0226533828    0.5019325690          0.5915
C407       C    1.3785170515   -0.0000000000    0.5000000000         -0.3978
N408       N    1.3693826094   -0.0275341603    0.5197774655         -0.4038
N409       N    1.3352534922   -0.0256029005    0.5251826796          0.5901
H410       H    1.3266353288   -0.0477665327    0.5210401752         -0.3991
H411       H    1.3789660339   -0.0244295063    0.5416978127          0.5783
H412       H    1.3475297174    0.0386430302    0.4815896896         -0.3984
H413       H    1.3803262418   -0.0079340205    0.4753412308         -0.3756
H414       H    1.3487641843    0.0363756109    0.5239325534          0.5693
H415       H    1.3253641105   -0.0147176242    0.4783593049         -0.3775
C350       C   -0.0000000000   -0.1214829485   -0.0000000000          0.5928
C351       C    0.0246878534   -0.1377373483    0.0107807330          0.5898
C352       C    0.0262903826   -0.1694036780    0.0093350537          0.5891
C353       C    0.0020908686   -0.1872886286   -0.0032209159          0.5919
C354       C   -0.0232936173   -0.1698301886   -0.0137937862         -0.4047
C355       C   -0.0237248641   -0.1380836801   -0.0121880745         -0.4045
C356       C    0.0028500159   -0.2201900956   -0.0045349585          0.5918
N357       N    0.0545750972   -0.1796841145    0.0200111820          0.5841
H358       H    0.0446170916   -0.1247709969    0.0209245188          0.5874
H359       H   -0.0447126664   -0.1255357101   -0.0204536490         -0.4012
Cl360     Cl   -0.0599909000   -0.1835796977   -0.0262100253         -0.3962
H361       H    0.0551823852   -0.1969598056    0.0368207298         -0.4033
H362       H    0.0707826630   -0.1632532066    0.0271070680          0.5812
C363       C    0.0207515438   -0.2377371506    0.0152527133         -0.4015
C364       C    0.0208794278   -0.2693469609    0.0154306329         -0.4003
C365       C    0.0030128608   -0.2866328618   -0.0040057369         -0.4055
C366       C   -0.0146878435   -0.2703423663   -0.0246015047          0.5872
C367       C   -0.0144718116   -0.2383090488   -0.0249047001          0.5857
C368       C    0.0029846270   -0.3228646159    0.0018377441         -0.3999
H369       H    0.0355605181   -0.2808876815    0.0332094066         -0.3938
H370       H    0.0348256729   -0.2279323728    0.0340860613         -0.3947
H371       H   -0.0284773357   -0.2279382466   -0.0436067234          0.5782
H372       H   -0.0299914361   -0.2828645341   -0.0411748247          0.5827
C373       C   -0.0106580488   -0.3490885281   -0.0200827431          0.5915
C374       C    0.0000000000   -0.3785170515    0.0000000000         -0.3978
N375       N    0.0315465472   -0.3693826094    0.0124134395         -0.4038
N376       N    0.0350413222   -0.3352534922    0.0078601274          0.5901
H377       H    0.0435769008   -0.3266353288    0.0287295029         -0.3991
H378       H    0.0482823233   -0.3789660339   -0.0020798104          0.5783
H379       H   -0.0364206362   -0.3475297174   -0.0224891212         -0.3984
H380       H   -0.0164184653   -0.3803262418    0.0200359072         -0.3756
H381       H    0.0003881399   -0.3487641843   -0.0435408031          0.5693
H382       H   -0.0102046171   -0.3253641105    0.0240996667         -0.3775
C317       C   -0.0000000000    0.1214829485    0.0000000000          0.5928
C318       C   -0.0028560775    0.1377373483   -0.0267872569          0.5898
C319       C   -0.0009953408    0.1694036780   -0.0278807593          0.5891
C320       C    0.0037006515    0.1872886286   -0.0010252849          0.5919
C321       C    0.0061489624    0.1698301886    0.0263638276         -0.4047
C322       C    0.0044878947    0.1380836801    0.0262921497         -0.4045
C323       C    0.0051821797    0.2201900956   -0.0013540507          0.5918
N324       N   -0.0026698156    0.1796841145   -0.0580668642          0.5841
H325       H   -0.0065359678    0.1247709969   -0.0488446668          0.5874
H326       H    0.0060581550    0.1255357101    0.0487941908         -0.4012
Cl327     Cl    0.0069526931    0.1835796977    0.0650963407         -0.3962
H328       H   -0.0185183496    0.1969598056   -0.0637019035         -0.4033
H329       H   -0.0045623191    0.1632532066   -0.0756582036          0.5812
C330       C   -0.0083049237    0.2377371506   -0.0243782706         -0.4015
C331       C   -0.0084361407    0.2693469609   -0.0245537465         -0.4003
C332       C    0.0047264429    0.2866328618   -0.0016685311         -0.4055
C333       C    0.0190446263    0.2703423663    0.0214072182          0.5872
C334       C    0.0193987590    0.2383090488    0.0212923828          0.5857
C335       C   -0.0008549508    0.3228646159   -0.0033991706         -0.3999
H336       H   -0.0209759901    0.2808876815   -0.0439024256         -0.3938
H337       H   -0.0220330740    0.2279323728   -0.0434652818         -0.3947
H338       H    0.0330223001    0.2279382466    0.0402744667          0.5782
H339       H    0.0302476075    0.2828645341    0.0409870061          0.5827
C340       C    0.0159471602    0.3490885281    0.0162048960          0.5915
C341       C    0.0000000000    0.3785170515    0.0000000000         -0.3978
N342       N   -0.0023502670    0.3693826094   -0.0338194377         -0.4038
N343       N    0.0030433432    0.3352534922   -0.0357828720          0.5901
H344       H   -0.0142924083    0.3266353288   -0.0502001761         -0.3991
H345       H    0.0165055633    0.3789660339   -0.0454210825          0.5783
H346       H    0.0104934011    0.3475297174    0.0414983354         -0.3984
H347       H   -0.0240463988    0.3803262418    0.0096319409         -0.3756
H348       H    0.0416414107    0.3487641843    0.0127257651          0.5693
H349       H   -0.0260530253    0.3253641105    0.0024835494         -0.3775
C284       C   -0.1214829485   -0.0000000000    0.0000000000          0.5928
C285       C   -0.1377373483    0.0220836958   -0.0154280488          0.5898
C286       C   -0.1694036780    0.0239393740   -0.0143259839          0.5891
C287       C   -0.1872886286    0.0026838026    0.0027464949          0.5919
C288       C   -0.1698301886   -0.0201238082    0.0181078295         -0.4047
C289       C   -0.1380836801   -0.0208625970    0.0166183749         -0.4045
C290       C   -0.2201900956    0.0036866856    0.0038854587          0.5918
N291       N   -0.1796841145    0.0495701874   -0.0303592682          0.5841
H292       H   -0.1247709969    0.0396271590   -0.0292951979          0.5874
H293       H   -0.1255357101   -0.0398135234    0.0288523422         -0.4012
Cl294     Cl   -0.1835796977   -0.0536602811    0.0375026365         -0.3962
H295       H   -0.1969598056    0.0468577973   -0.0469596488         -0.4033
H296       H   -0.1632532066    0.0640645161   -0.0405057564          0.5812
C297       C   -0.2377371506    0.0173443493   -0.0190379983         -0.4015
C298       C   -0.2693469609    0.0174347216   -0.0192376043         -0.4003
C299       C   -0.2866328618    0.0037422055    0.0033345399         -0.4055
C300       C   -0.2703423663   -0.0095595430    0.0270107741          0.5872
C301       C   -0.2383090488   -0.0092880720    0.0272655302          0.5857
C302       C   -0.3228646159    0.0025646362   -0.0023891301         -0.3999
H303       H   -0.2808876815    0.0283302292   -0.0395577205         -0.3938
H304       H   -0.2279323728    0.0274372429   -0.0402726305         -0.3947
H305       H   -0.2279382466   -0.0193395442    0.0483579053          0.5782
H306       H   -0.2828645341   -0.0213025921    0.0462715031          0.5827
C307       C   -0.3490885281   -0.0064977488    0.0217873779          0.5915
C308       C   -0.3785170515   -0.0000000000    0.0000000000         -0.3978
N309       N   -0.3693826094    0.0284869984   -0.0183784941         -0.4038
N310       N   -0.3352534922    0.0328094481   -0.0146019171          0.5901
H311       H   -0.3266353288    0.0370714319   -0.0367428844         -0.3991
H312       H   -0.3789660339    0.0477475469   -0.0074619117          0.5783
H313       H   -0.3475297174   -0.0312830810    0.0292162995         -0.3984
H314       H   -0.3803262418   -0.0200401330   -0.0164133072         -0.3756
H315       H   -0.3487641843    0.0089485649    0.0426130892          0.5693
H316       H   -0.3253641105   -0.0147474533   -0.0216203786         -0.3775
C251       C    0.3785170515   -0.0000000000    0.0000000000          0.5928
C252       C    0.3622626517    0.0088117009    0.0254571844          0.5898
C253       C    0.3305963220    0.0072448144    0.0269414200          0.5891
C254       C    0.3127113714   -0.0033749491    0.0018318705          0.5919
C255       C    0.3301698114   -0.0119248026   -0.0243035024         -0.4047
C256       C    0.3619163199   -0.0102902197   -0.0246075134         -0.4045
C257       C    0.2798099044   -0.0047444725    0.0024856429          0.5918
N258       N    0.3203158855    0.0156701935    0.0559761884          0.5841
H259       H    0.3752290031    0.0173615510    0.0461204607          0.5874
H260       H    0.3744642899   -0.0168846367   -0.0461788191         -0.4012
Cl261     Cl    0.3164203023   -0.0214252835   -0.0618613833         -0.3962
H262       H    0.3030401944    0.0323803656    0.0578996865         -0.4033
H263       H    0.3367467934    0.0214733542    0.0726902578          0.5812
C264       C    0.2622628494    0.0135785681    0.0218836542         -0.4015
C265       C    0.2306530391    0.0137459122    0.0220250956         -0.4003
C266       C    0.2133671382   -0.0042296494    0.0026894840         -0.4055
C267       C    0.2296576337   -0.0233740449   -0.0165716868          0.5872
C268       C    0.2616909512   -0.0236932463   -0.0163800945          0.5857
C269       C    0.1771353841    0.0015980534    0.0031195395         -0.3999
H270       H    0.2191123185    0.0303187628    0.0380550622         -0.3938
H271       H    0.2720676272    0.0312503394    0.0373912203         -0.3947
H272       H    0.2720617534   -0.0412394768   -0.0318089693          0.5782
H273       H    0.2171354659   -0.0386963414   -0.0331277164          0.5827
C274       C    0.1509114719   -0.0191851832   -0.0121999722          0.5915
C275       C    0.1214829485   -0.0000000000    0.0000000000         -0.3978
N276       N    0.1306173906    0.0099015725    0.0324227850         -0.4038
N277       N    0.1647465078    0.0050882456    0.0355497626          0.5901
H278       H    0.1733646712    0.0252240675    0.0456954816         -0.3991
H279       H    0.1210339661   -0.0058593480    0.0479705785          0.5783
H280       H    0.1524702826   -0.0195640412   -0.0380719267         -0.3984
H281       H    0.1196737582    0.0212616307   -0.0147968456         -0.3756
H282       H    0.1512358157   -0.0434371757   -0.0030272017          0.5693
H283       H    0.1746358895    0.0248256340   -0.0082834801         -0.3775
C218       C    0.0000000000    0.0000000000   -0.1214829485          0.5928
C219       C    0.0260607467    0.0068228875   -0.1377373483          0.5898
C220       C    0.0264238140    0.0089503909   -0.1694036780          0.5891
C221       C   -0.0003528002    0.0038238152   -0.1872886286          0.5919
C222       C   -0.0268318218   -0.0035936728   -0.1698301886         -0.4047
C223       C   -0.0261761030   -0.0051215200   -0.1380836801         -0.4045
C224       C   -0.0005704375    0.0053256963   -0.2201900956          0.5918
N225       N    0.0552440265    0.0180827590   -0.1796841145          0.5841
H226       H    0.0479906188    0.0111991455   -0.1247709969          0.5874
H227       H   -0.0477740790   -0.0116280551   -0.1255357101         -0.4012
Cl228     Cl   -0.0633351097   -0.0165691700   -0.1835796977         -0.3962
H229       H    0.0661301286    0.0052600261   -0.1969598056         -0.4033
H230       H    0.0723642526    0.0225475822   -0.1632532066          0.5812
C231       C    0.0257392314    0.0008739574   -0.2377371506         -0.4015
C232       C    0.0259498215    0.0008134474   -0.2693469609         -0.4003
C233       C   -0.0001148535    0.0050109946   -0.2866328618         -0.4055
C234       C   -0.0267672474    0.0102216068   -0.2703423663          0.5872
C235       C   -0.0267853728    0.0105934517   -0.2383090488          0.5857
C236       C    0.0034815354    0.0004052314   -0.3228646159         -0.3999
H237       H    0.0484868108   -0.0040551583   -0.2808876815         -0.3938
H238       H    0.0484526789   -0.0051985550   -0.2279323728         -0.3947
H239       H   -0.0493636295    0.0166053320   -0.2279382466          0.5782
H240       H   -0.0490465496    0.0137582121   -0.2828645341          0.5827
C241       C   -0.0208048382    0.0091689303   -0.3490885281          0.5915
C242       C    0.0000000000    0.0000000000   -0.3785170515         -0.3978
N243       N    0.0324572160    0.0097881179   -0.3693826094         -0.4038
N244       N    0.0323816754    0.0155274905   -0.3352534922          0.5901
H245       H    0.0520070777    0.0044265661   -0.3266353288         -0.3991
H246       H    0.0366231835    0.0315317425   -0.3789660339          0.5783
H247       H   -0.0425236679   -0.0048949952   -0.3475297174         -0.3984
H248       H   -0.0004845424   -0.0258992046   -0.3803262418         -0.3756
H249       H   -0.0266577450    0.0344284304   -0.3487641843          0.5693
H250       H    0.0069110188   -0.0252421466   -0.3253641105         -0.3775
C185       C   -0.0000000000    0.0000000000    0.3785170515          0.5928
C186       C   -0.0041406591    0.0266189641    0.3622626517          0.5898
C187       C   -0.0062202842    0.0271962407    0.3305963220          0.5891
C188       C   -0.0038398739    0.0000374024    0.3127113714          0.5919
C189       C    0.0008498274   -0.0270580660    0.3301698114         -0.4047
C190       C    0.0024363736   -0.0265609190    0.3619163199         -0.4045
C191       C   -0.0053560932   -0.0000265659    0.2798099044          0.5918
N192       N   -0.0123782066    0.0567949702    0.3203158855          0.5841
H193       H   -0.0062669071    0.0488799164    0.3752290031          0.5874
H194       H    0.0067155921   -0.0487080601    0.3744642899         -0.4012
Cl195     Cl    0.0100506479   -0.0646904784    0.3164203023         -0.3962
H196       H    0.0014838968    0.0663223931    0.3030401944         -0.4033
H197       H   -0.0150810689    0.0742801446    0.3367467934          0.5812
C198       C    0.0017448508    0.0256948892    0.2622628494         -0.4015
C199       C    0.0018264371    0.0258982444    0.2306530391         -0.4003
C200       C   -0.0049967461    0.0003946984    0.2133671382         -0.4055
C201       C   -0.0128874489   -0.0255906319    0.2296576337          0.5872
C202       C   -0.0132592118   -0.0255708960    0.2616909512          0.5857
C203       C   -0.0000495224    0.0035046896    0.1771353841         -0.3999
H204       H    0.0089589076    0.0478241896    0.2191123185         -0.3938
H205       H    0.0100929246    0.0476741013    0.2720676272         -0.3947
H206       H   -0.0215332360   -0.0474217747    0.2720617534          0.5782
H207       H   -0.0186686345   -0.0473955116    0.2171354659          0.5827
C208       C   -0.0112346247   -0.0197659753    0.1509114719          0.5915
C209       C   -0.0000000000    0.0000000000    0.1214829485         -0.3978
N210       N   -0.0064408769    0.0332835279    0.1306173906         -0.4038
N211       N   -0.0121582413    0.0337913160    0.1647465078          0.5901
H212       H    0.0008785932    0.0521877255    0.1733646712         -0.3991
H213       H   -0.0276489260    0.0396364132    0.1210339661          0.5783
H214       H    0.0005506268   -0.0428009360    0.1524702826         -0.3984
H215       H    0.0257160547   -0.0031125734    0.1196737582         -0.3756
H216       H   -0.0369579666   -0.0230230512    0.1512358157          0.5693
H217       H    0.0258135488    0.0043114784    0.1746358895         -0.3775
loop_
_geom_bond_atom_site_label_1
_geom_bond_atom_site_label_2
_geom_bond_distance
_geom_bond_site_symmetry_2
_ccdc_geom_bond_type
Zn1          O5 1.942       .   S
Zn1          O6 1.922       .   S
Zn1         O10 1.922       .   S
Zn1         O17 1.922       .   S
Zn2          O5 1.942       .   S
Zn2          O7 1.922       .   S
Zn2          O9 1.922       .   S
Zn2         O13 1.922       .   S
Zn3          O5 1.942       .   S
Zn3          O8 1.922       .   S
Zn3         O11 1.922       .   S
Zn3         O14 1.922       .   S
Zn4          O5 1.942       .   S
Zn4         O12 1.922       .   S
Zn4         O15 1.922       .   S
Zn4         O16 1.922       .   S
O6          C18 1.304       .   A
O7          C19 1.304       .   A
O8          C20 1.304       .   A
O9          C18 1.304       .   A
O10         C20 1.304       .   A
O11         C19 1.304       .   A
O12         C21 1.304       .   A
O13         C22 1.304       .   A
O14         C21 1.304       .   A
O15         C22 1.304       .   A
O16         C23 1.304       .   A
O17         C23 1.304       .   A
C18        C317 1.540       .   S
C19        C275 1.540       .   S
C20        C209 1.540       .   S
C21        C350 1.540       .   S
C22        C218 1.540       .   S
C23        C284 1.540       .   S
Zn24        O28 1.942       .   S
Zn24        O29 1.922       .   S
Zn24        O33 1.922       .   S
Zn24        O40 1.922       .   S
Zn25        O28 1.942       .   S
Zn25        O30 1.922       .   S
Zn25        O32 1.922       .   S
Zn25        O36 1.922       .   S
Zn26        O28 1.942       .   S
Zn26        O31 1.922       .   S
Zn26        O34 1.922       .   S
Zn26        O37 1.922       .   S
Zn27        O28 1.942       .   S
Zn27        O35 1.922       .   S
Zn27        O38 1.922       .   S
Zn27        O39 1.922       .   S
O29         C41 1.304       .   A
O30         C42 1.304       .   A
O31         C43 1.304       .   A
O32         C41 1.304       .   A
O33         C43 1.304       .   A
O34         C42 1.304       .   A
O35         C44 1.304       .   A
O36         C45 1.304       .   A
O37         C44 1.304       .   A
O38         C45 1.304       .   A
O39         C46 1.304       .   A
O40         C46 1.304       .   A
C41        C185 1.540   1_655   S
C42        C383 1.540       .   S
C43        C449 1.540       .   S
C44        C242 1.540   1_656   S
C45        C482 1.540       .   S
C46        C416 1.540       .   S
Zn47        O51 1.942       .   S
Zn47        O52 1.922       .   S
Zn47        O56 1.922       .   S
Zn47        O63 1.922       .   S
Zn48        O51 1.942       .   S
Zn48        O53 1.922       .   S
Zn48        O55 1.922       .   S
Zn48        O59 1.922       .   S
Zn49        O51 1.942       .   S
Zn49        O54 1.922       .   S
Zn49        O57 1.922       .   S
Zn49        O60 1.922       .   S
Zn50        O51 1.942       .   S
Zn50        O58 1.922       .   S
Zn50        O61 1.922       .   S
Zn50        O62 1.922       .   S
O52         C64 1.304       .   A
O53         C65 1.304       .   A
O54         C66 1.304       .   A
O55         C64 1.304       .   A
O56         C66 1.304       .   A
O57         C65 1.304       .   A
O58         C67 1.304       .   A
O59         C68 1.304       .   A
O60         C67 1.304       .   A
O61         C68 1.304       .   A
O62         C69 1.304       .   A
O63         C69 1.304       .   A
C64        C341 1.540   1_655   S
C65        C515 1.540       .   S
C66        C581 1.540       .   S
C67        C374 1.540   1_665   S
C68        C614 1.540       .   S
C69        C548 1.540       .   S
Zn70        O74 1.942       .   S
Zn70        O75 1.922       .   S
Zn70        O79 1.922       .   S
Zn70        O86 1.922       .   S
Zn71        O74 1.942       .   S
Zn71        O76 1.922       .   S
Zn71        O78 1.922       .   S
Zn71        O82 1.922       .   S
Zn72        O74 1.942       .   S
Zn72        O77 1.922       .   S
Zn72        O80 1.922       .   S
Zn72        O83 1.922       .   S
Zn73        O74 1.942       .   S
Zn73        O81 1.922       .   S
Zn73        O84 1.922       .   S
Zn73        O85 1.922       .   S
O75         C87 1.304       .   A
O76         C88 1.304       .   A
O77         C89 1.304       .   A
O78         C87 1.304       .   A
O79         C89 1.304       .   A
O80         C88 1.304       .   A
O81         C90 1.304       .   A
O82         C91 1.304       .   A
O83         C90 1.304       .   A
O84         C91 1.304       .   A
O85         C92 1.304       .   A
O86         C92 1.304       .   A
C87        C572 1.540   1_556   S
C88        C680 1.540       .   S
C89        C506 1.540   1_565   S
C90        C539 1.540       .   S
C91        C473 1.540       .   S
C92        C647 1.540       .   S
Zn93        O97 1.942       .   S
Zn93        O98 1.922       .   S
Zn93       O102 1.922       .   S
Zn93       O109 1.922       .   S
Zn94        O97 1.942       .   S
Zn94        O99 1.922       .   S
Zn94       O101 1.922       .   S
Zn94       O105 1.922       .   S
Zn95        O97 1.942       .   S
Zn95       O100 1.922       .   S
Zn95       O103 1.922       .   S
Zn95       O106 1.922       .   S
Zn96        O97 1.942       .   S
Zn96       O104 1.922       .   S
Zn96       O107 1.922       .   S
Zn96       O108 1.922       .   S
O98        C110 1.304       .   A
O99        C111 1.304       .   A
O100       C112 1.304       .   A
O101       C110 1.304       .   A
O102       C112 1.304       .   A
O103       C111 1.304       .   A
O104       C113 1.304       .   A
O105       C114 1.304       .   A
O106       C113 1.304       .   A
O107       C114 1.304       .   A
O108       C115 1.304       .   A
O109       C115 1.304       .   A
C110       C251 1.540   1_565   S
C111       C737 1.540       .   S
C112       C836 1.540       .   S
C113       C308 1.540   1_665   S
C114       C779 1.540       .   S
C115       C746 1.540       .   S
Zn116      O120 1.942       .   S
Zn116      O121 1.922       .   S
Zn116      O125 1.922       .   S
Zn116      O132 1.922       .   S
Zn117      O120 1.942       .   S
Zn117      O122 1.922       .   S
Zn117      O124 1.922       .   S
Zn117      O128 1.922       .   S
Zn118      O120 1.942       .   S
Zn118      O123 1.922       .   S
Zn118      O126 1.922       .   S
Zn118      O129 1.922       .   S
Zn119      O120 1.942       .   S
Zn119      O127 1.922       .   S
Zn119      O130 1.922       .   S
Zn119      O131 1.922       .   S
O121       C133 1.304       .   A
O122       C134 1.304       .   A
O123       C135 1.304       .   A
O124       C133 1.304       .   A
O125       C135 1.304       .   A
O126       C134 1.304       .   A
O127       C136 1.304       .   A
O128       C137 1.304       .   A
O129       C136 1.304       .   A
O130       C137 1.304       .   A
O131       C138 1.304       .   A
O132       C138 1.304       .   A
C133       C407 1.540   1_465   S
C134       C845 1.540       .   S
C135       C770 1.540   1_556   S
C136       C440 1.540   1_565   S
C137       C713 1.540       .   S
C138       C878 1.540       .   S
Zn139      O143 1.942       .   S
Zn139      O144 1.922       .   S
Zn139      O148 1.922       .   S
Zn139      O155 1.922       .   S
Zn140      O143 1.942       .   S
Zn140      O145 1.922       .   S
Zn140      O147 1.922       .   S
Zn140      O151 1.922       .   S
Zn141      O143 1.942       .   S
Zn141      O146 1.922       .   S
Zn141      O149 1.922       .   S
Zn141      O152 1.922       .   S
Zn142      O143 1.942       .   S
Zn142      O150 1.922       .   S
Zn142      O153 1.922       .   S
Zn142      O154 1.922       .   S
O144       C156 1.304       .   A
O145       C157 1.304       .   A
O146       C158 1.304       .   A
O147       C156 1.304       .   A
O148       C158 1.304       .   A
O149       C157 1.304       .   A
O150       C159 1.304       .   A
O151       C160 1.304       .   A
O152       C159 1.304       .   A
O153       C160 1.304       .   A
O154       C161 1.304       .   A
O155       C161 1.304       .   A
C156       C605 1.540   1_455   S
C157       C803 1.540   1_545   S
C158       C944 1.540       .   S
C159       C638 1.540       .   S
C160       C911 1.540       .   S
C161       C812 1.540       .   S
Zn162      O166 1.942       .   S
Zn162      O167 1.922       .   S
Zn162      O171 1.922       .   S
Zn162      O178 1.922       .   S
Zn163      O166 1.942       .   S
Zn163      O168 1.922       .   S
Zn163      O170 1.922       .   S
Zn163      O174 1.922       .   S
Zn164      O166 1.942       .   S
Zn164      O169 1.922       .   S
Zn164      O172 1.922       .   S
Zn164      O175 1.922       .   S
Zn165      O166 1.942       .   S
Zn165      O173 1.922       .   S
Zn165      O176 1.922       .   S
Zn165      O177 1.922       .   S
O167       C179 1.304       .   A
O168       C180 1.304       .   A
O169       C181 1.304       .   A
O170       C179 1.304       .   A
O171       C181 1.304       .   A
O172       C180 1.304       .   A
O173       C182 1.304       .   A
O174       C183 1.304       .   A
O175       C182 1.304       .   A
O176       C183 1.304       .   A
O177       C184 1.304       .   A
O178       C184 1.304       .   A
C179       C671 1.540   1_455   S
C180       C902 1.540       .   S
C181       C968 1.540   1_556   S
C182       C704 1.540       .   S
C183       C935 1.540       .   S
C184       C869 1.540   1_545   S
C944       C945 0.027       .   A
C944       C949 0.027       .   A
C945       C946 0.027       .   A
C945       H952 0.022       .   A
C946       C947 0.028       .   A
C946       N951 0.028       .   A
C947       C948 0.028       .   A
C947       C950 0.028       .   A
C948       C949 0.027       .   A
C948      Cl954 0.035       .   A
C949       H953 0.022       .   A
C950       C957 0.028       .   A
C950       C961 0.028       .   A
N951       H955 0.021       .   A
N951       H956 0.021       .   A
C957       C958 0.027       .   A
C957       H964 0.022       .   A
C958       C959 0.027       .   A
C958       H963 0.022       .   A
C959       C960 0.027       .   A
C959       C962 0.032       .   A
C960       C961 0.028       .   A
C960       H966 0.022       .   A
C961       H965 0.022       .   A
C962       C967 0.032       .   A
C962       N970 0.030       .   A
C962       H976 0.022       .   A
C967       C968 0.032       .   A
C967       H973 0.022       .   A
C967       H975 0.022       .   A
C968       N969 0.030       .   A
C968       H974 0.022       .   A
N969       N970 0.030       .   A
N969       H972 0.021       .   A
N970       H971 0.021       .   A
C911       C912 0.027       .   A
C911       C916 0.027       .   A
C912       C913 0.027       .   A
C912       H919 0.022       .   A
C913       C914 0.028       .   A
C913       N918 0.028       .   A
C914       C915 0.028       .   A
C914       C917 0.028       .   A
C915       C916 0.027       .   A
C915      Cl921 0.035       .   A
C916       H920 0.022       .   A
C917       C924 0.028       .   A
C917       C928 0.028       .   A
N918       H922 0.021       .   A
N918       H923 0.021       .   A
C924       C925 0.027       .   A
C924       H931 0.022       .   A
C925       C926 0.027       .   A
C925       H930 0.022       .   A
C926       C927 0.027       .   A
C926       C929 0.032       .   A
C927       C928 0.028       .   A
C927       H933 0.022       .   A
C928       H932 0.022       .   A
C929       C934 0.032       .   A
C929       N937 0.030       .   A
C929       H943 0.022       .   A
C934       C935 0.032       .   A
C934       H940 0.022       .   A
C934       H942 0.022       .   A
C935       N936 0.030       .   A
C935       H941 0.022       .   A
N936       N937 0.030       .   A
N936       H939 0.021       .   A
N937       H938 0.021       .   A
C878       C879 0.027       .   A
C878       C883 0.027       .   A
C879       C880 0.027       .   A
C879       H886 0.022       .   A
C880       C881 0.028       .   A
C880       N885 0.028       .   A
C881       C882 0.028       .   A
C881       C884 0.028       .   A
C882       C883 0.027       .   A
C882      Cl888 0.035       .   A
C883       H887 0.022       .   A
C884       C891 0.028       .   A
C884       C895 0.028       .   A
N885       H889 0.021       .   A
N885       H890 0.021       .   A
C891       C892 0.027       .   A
C891       H898 0.022       .   A
C892       C893 0.027       .   A
C892       H897 0.022       .   A
C893       C894 0.027       .   A
C893       C896 0.032       .   A
C894       C895 0.028       .   A
C894       H900 0.022       .   A
C895       H899 0.022       .   A
C896       C901 0.032       .   A
C896       N904 0.030       .   A
C896       H910 0.022       .   A
C901       C902 0.032       .   A
C901       H907 0.022       .   A
C901       H909 0.022       .   A
C902       N903 0.030       .   A
C902       H908 0.022       .   A
N903       N904 0.030       .   A
N903       H906 0.021       .   A
N904       H905 0.021       .   A
C845       C846 0.027       .   A
C845       C850 0.027       .   A
C846       C847 0.027       .   A
C846       H853 0.022       .   A
C847       C848 0.028       .   A
C847       N852 0.028       .   A
C848       C849 0.028       .   A
C848       C851 0.028       .   A
C849       C850 0.027       .   A
C849      Cl855 0.035       .   A
C850       H854 0.022       .   A
C851       C858 0.028       .   A
C851       C862 0.028       .   A
N852       H856 0.021       .   A
N852       H857 0.021       .   A
C858       C859 0.027       .   A
C858       H865 0.022       .   A
C859       C860 0.027       .   A
C859       H864 0.022       .   A
C860       C861 0.027       .   A
C860       C863 0.032       .   A
C861       C862 0.028       .   A
C861       H867 0.022       .   A
C862       H866 0.022       .   A
C863       C868 0.032       .   A
C863       N871 0.030       .   A
C863       H877 0.022       .   A
C868       C869 0.032       .   A
C868       H874 0.022       .   A
C868       H876 0.022       .   A
C869       N870 0.030       .   A
C869       H875 0.022       .   A
N870       N871 0.030       .   A
N870       H873 0.021       .   A
N871       H872 0.021       .   A
C812       C813 0.027       .   A
C812       C817 0.027       .   A
C813       C814 0.027       .   A
C813       H820 0.022       .   A
C814       C815 0.028       .   A
C814       N819 0.028       .   A
C815       C816 0.028       .   A
C815       C818 0.028       .   A
C816       C817 0.027       .   A
C816      Cl822 0.035       .   A
C817       H821 0.022       .   A
C818       C825 0.028       .   A
C818       C829 0.028       .   A
N819       H823 0.021       .   A
N819       H824 0.021       .   A
C825       C826 0.027       .   A
C825       H832 0.022       .   A
C826       C827 0.027       .   A
C826       H831 0.022       .   A
C827       C828 0.027       .   A
C827       C830 0.032       .   A
C828       C829 0.028       .   A
C828       H834 0.022       .   A
C829       H833 0.022       .   A
C830       C835 0.032       .   A
C830       N838 0.030       .   A
C830       H844 0.022       .   A
C835       C836 0.032       .   A
C835       H841 0.022       .   A
C835       H843 0.022       .   A
C836       N837 0.030       .   A
C836       H842 0.022       .   A
N837       N838 0.030       .   A
N837       H840 0.021       .   A
N838       H839 0.021       .   A
C779       C780 0.027       .   A
C779       C784 0.027       .   A
C780       C781 0.027       .   A
C780       H787 0.022       .   A
C781       C782 0.028       .   A
C781       N786 0.028       .   A
C782       C783 0.028       .   A
C782       C785 0.028       .   A
C783       C784 0.027       .   A
C783      Cl789 0.035       .   A
C784       H788 0.022       .   A
C785       C792 0.028       .   A
C785       C796 0.028       .   A
N786       H790 0.021       .   A
N786       H791 0.021       .   A
C792       C793 0.027       .   A
C792       H799 0.022       .   A
C793       C794 0.027       .   A
C793       H798 0.022       .   A
C794       C795 0.027       .   A
C794       C797 0.032       .   A
C795       C796 0.028       .   A
C795       H801 0.022       .   A
C796       H800 0.022       .   A
C797       C802 0.032       .   A
C797       N805 0.030       .   A
C797       H811 0.022       .   A
C802       C803 0.032       .   A
C802       H808 0.022       .   A
C802       H810 0.022       .   A
C803       N804 0.030       .   A
C803       H809 0.022       .   A
N804       N805 0.030       .   A
N804       H807 0.021       .   A
N805       H806 0.021       .   A
C746       C747 0.027       .   A
C746       C751 0.027       .   A
C747       C748 0.027       .   A
C747       H754 0.022       .   A
C748       C749 0.028       .   A
C748       N753 0.028       .   A
C749       C750 0.028       .   A
C749       C752 0.028       .   A
C750       C751 0.027       .   A
C750      Cl756 0.035       .   A
C751       H755 0.022       .   A
C752       C759 0.028       .   A
C752       C763 0.028       .   A
N753       H757 0.021       .   A
N753       H758 0.021       .   A
C759       C760 0.027       .   A
C759       H766 0.022       .   A
C760       C761 0.027       .   A
C760       H765 0.022       .   A
C761       C762 0.027       .   A
C761       C764 0.032       .   A
C762       C763 0.028       .   A
C762       H768 0.022       .   A
C763       H767 0.022       .   A
C764       C769 0.032       .   A
C764       N772 0.030       .   A
C764       H778 0.022       .   A
C769       C770 0.032       .   A
C769       H775 0.022       .   A
C769       H777 0.022       .   A
C770       N771 0.030       .   A
C770       H776 0.022       .   A
N771       N772 0.030       .   A
N771       H774 0.021       .   A
N772       H773 0.021       .   A
C713       C714 0.027       .   A
C713       C718 0.027       .   A
C714       C715 0.027       .   A
C714       H721 0.022       .   A
C715       C716 0.028       .   A
C715       N720 0.028       .   A
C716       C717 0.028       .   A
C716       C719 0.028       .   A
C717       C718 0.027       .   A
C717      Cl723 0.035       .   A
C718       H722 0.022       .   A
C719       C726 0.028       .   A
C719       C730 0.028       .   A
N720       H724 0.021       .   A
N720       H725 0.021       .   A
C726       C727 0.027       .   A
C726       H733 0.022       .   A
C727       C728 0.027       .   A
C727       H732 0.022       .   A
C728       C729 0.027       .   A
C728       C731 0.032       .   A
C729       C730 0.028       .   A
C729       H735 0.022       .   A
C730       H734 0.022       .   A
C731       C736 0.032       .   A
C731       N739 0.030       .   A
C731       H745 0.022       .   A
C736       C737 0.032       .   A
C736       H742 0.022       .   A
C736       H744 0.022       .   A
C737       N738 0.030       .   A
C737       H743 0.022       .   A
N738       N739 0.030       .   A
N738       H741 0.021       .   A
N739       H740 0.021       .   A
C680       C681 0.027       .   A
C680       C685 0.027       .   A
C681       C682 0.027       .   A
C681       H688 0.022       .   A
C682       C683 0.028       .   A
C682       N687 0.028       .   A
C683       C684 0.028       .   A
C683       C686 0.028       .   A
C684       C685 0.027       .   A
C684      Cl690 0.035       .   A
C685       H689 0.022       .   A
C686       C693 0.028       .   A
C686       C697 0.028       .   A
N687       H691 0.021       .   A
N687       H692 0.021       .   A
C693       C694 0.027       .   A
C693       H700 0.022       .   A
C694       C695 0.027       .   A
C694       H699 0.022       .   A
C695       C696 0.027       .   A
C695       C698 0.032       .   A
C696       C697 0.028       .   A
C696       H702 0.022       .   A
C697       H701 0.022       .   A
C698       C703 0.032       .   A
C698       N706 0.030       .   A
C698       H712 0.022       .   A
C703       C704 0.032       .   A
C703       H709 0.022       .   A
C703       H711 0.022       .   A
C704       N705 0.030       .   A
C704       H710 0.022       .   A
N705       N706 0.030       .   A
N705       H708 0.021       .   A
N706       H707 0.021       .   A
C647       C648 0.027       .   A
C647       C652 0.027       .   A
C648       C649 0.027       .   A
C648       H655 0.022       .   A
C649       C650 0.028       .   A
C649       N654 0.028       .   A
C650       C651 0.028       .   A
C650       C653 0.028       .   A
C651       C652 0.027       .   A
C651      Cl657 0.035       .   A
C652       H656 0.022       .   A
C653       C660 0.028       .   A
C653       C664 0.028       .   A
N654       H658 0.021       .   A
N654       H659 0.021       .   A
C660       C661 0.027       .   A
C660       H667 0.022       .   A
C661       C662 0.027       .   A
C661       H666 0.022       .   A
C662       C663 0.027       .   A
C662       C665 0.032       .   A
C663       C664 0.028       .   A
C663       H669 0.022       .   A
C664       H668 0.022       .   A
C665       C670 0.032       .   A
C665       N673 0.030       .   A
C665       H679 0.022       .   A
C670       C671 0.032       .   A
C670       H676 0.022       .   A
C670       H678 0.022       .   A
C671       N672 0.030       .   A
C671       H677 0.022       .   A
N672       N673 0.030       .   A
N672       H675 0.021       .   A
N673       H674 0.021       .   A
C614       C615 0.027       .   A
C614       C619 0.027       .   A
C615       C616 0.027       .   A
C615       H622 0.022       .   A
C616       C617 0.028       .   A
C616       N621 0.028       .   A
C617       C618 0.028       .   A
C617       C620 0.028       .   A
C618       C619 0.027       .   A
C618      Cl624 0.035       .   A
C619       H623 0.022       .   A
C620       C627 0.028       .   A
C620       C631 0.028       .   A
N621       H625 0.021       .   A
N621       H626 0.021       .   A
C627       C628 0.027       .   A
C627       H634 0.022       .   A
C628       C629 0.027       .   A
C628       H633 0.022       .   A
C629       C630 0.027       .   A
C629       C632 0.032       .   A
C630       C631 0.028       .   A
C630       H636 0.022       .   A
C631       H635 0.022       .   A
C632       C637 0.032       .   A
C632       N640 0.030       .   A
C632       H646 0.022       .   A
C637       C638 0.032       .   A
C637       H643 0.022       .   A
C637       H645 0.022       .   A
C638       N639 0.030       .   A
C638       H644 0.022       .   A
N639       N640 0.030       .   A
N639       H642 0.021       .   A
N640       H641 0.021       .   A
C581       C582 0.027       .   A
C581       C586 0.027       .   A
C582       C583 0.027       .   A
C582       H589 0.022       .   A
C583       C584 0.028       .   A
C583       N588 0.028       .   A
C584       C585 0.028       .   A
C584       C587 0.028       .   A
C585       C586 0.027       .   A
C585      Cl591 0.035       .   A
C586       H590 0.022       .   A
C587       C594 0.028       .   A
C587       C598 0.028       .   A
N588       H592 0.021       .   A
N588       H593 0.021       .   A
C594       C595 0.027       .   A
C594       H601 0.022       .   A
C595       C596 0.027       .   A
C595       H600 0.022       .   A
C596       C597 0.027       .   A
C596       C599 0.032       .   A
C597       C598 0.028       .   A
C597       H603 0.022       .   A
C598       H602 0.022       .   A
C599       C604 0.032       .   A
C599       N607 0.030       .   A
C599       H613 0.022       .   A
C604       C605 0.032       .   A
C604       H610 0.022       .   A
C604       H612 0.022       .   A
C605       N606 0.030       .   A
C605       H611 0.022       .   A
N606       N607 0.030       .   A
N606       H609 0.021       .   A
N607       H608 0.021       .   A
C548       C549 0.027       .   A
C548       C553 0.027       .   A
C549       C550 0.027       .   A
C549       H556 0.022       .   A
C550       C551 0.028       .   A
C550       N555 0.028       .   A
C551       C552 0.028       .   A
C551       C554 0.028       .   A
C552       C553 0.027       .   A
C552      Cl558 0.035       .   A
C553       H557 0.022       .   A
C554       C561 0.028       .   A
C554       C565 0.028       .   A
N555       H559 0.021       .   A
N555       H560 0.021       .   A
C561       C562 0.027       .   A
C561       H568 0.022       .   A
C562       C563 0.027       .   A
C562       H567 0.022       .   A
C563       C564 0.027       .   A
C563       C566 0.032       .   A
C564       C565 0.028       .   A
C564       H570 0.022       .   A
C565       H569 0.022       .   A
C566       C571 0.032       .   A
C566       N574 0.030       .   A
C566       H580 0.022       .   A
C571       C572 0.032       .   A
C571       H577 0.022       .   A
C571       H579 0.022       .   A
C572       N573 0.030       .   A
C572       H578 0.022       .   A
N573       N574 0.030       .   A
N573       H576 0.021       .   A
N574       H575 0.021       .   A
C515       C516 0.027       .   A
C515       C520 0.027       .   A
C516       C517 0.027       .   A
C516       H523 0.022       .   A
C517       C518 0.028       .   A
C517       N522 0.028       .   A
C518       C519 0.028       .   A
C518       C521 0.028       .   A
C519       C520 0.027       .   A
C519      Cl525 0.035       .   A
C520       H524 0.022       .   A
C521       C528 0.028       .   A
C521       C532 0.028       .   A
N522       H526 0.021       .   A
N522       H527 0.021       .   A
C528       C529 0.027       .   A
C528       H535 0.022       .   A
C529       C530 0.027       .   A
C529       H534 0.022       .   A
C530       C531 0.027       .   A
C530       C533 0.032       .   A
C531       C532 0.028       .   A
C531       H537 0.022       .   A
C532       H536 0.022       .   A
C533       C538 0.032       .   A
C533       N541 0.030       .   A
C533       H547 0.022       .   A
C538       C539 0.032       .   A
C538       H544 0.022       .   A
C538       H546 0.022       .   A
C539       N540 0.030       .   A
C539       H545 0.022       .   A
N540       N541 0.030       .   A
N540       H543 0.021       .   A
N541       H542 0.021       .   A
C482       C483 0.027       .   A
C482       C487 0.027       .   A
C483       C484 0.027       .   A
C483       H490 0.022       .   A
C484       C485 0.028       .   A
C484       N489 0.028       .   A
C485       C486 0.028       .   A
C485       C488 0.028       .   A
C486       C487 0.027       .   A
C486      Cl492 0.035       .   A
C487       H491 0.022       .   A
C488       C495 0.028       .   A
C488       C499 0.028       .   A
N489       H493 0.021       .   A
N489       H494 0.021       .   A
C495       C496 0.027       .   A
C495       H502 0.022       .   A
C496       C497 0.027       .   A
C496       H501 0.022       .   A
C497       C498 0.027       .   A
C497       C500 0.032       .   A
C498       C499 0.028       .   A
C498       H504 0.022       .   A
C499       H503 0.022       .   A
C500       C505 0.032       .   A
C500       N508 0.030       .   A
C500       H514 0.022       .   A
C505       C506 0.032       .   A
C505       H511 0.022       .   A
C505       H513 0.022       .   A
C506       N507 0.030       .   A
C506       H512 0.022       .   A
N507       N508 0.030       .   A
N507       H510 0.021       .   A
N508       H509 0.021       .   A
C449       C450 0.027       .   A
C449       C454 0.027       .   A
C450       C451 0.027       .   A
C450       H457 0.022       .   A
C451       C452 0.028       .   A
C451       N456 0.028       .   A
C452       C453 0.028       .   A
C452       C455 0.028       .   A
C453       C454 0.027       .   A
C453      Cl459 0.035       .   A
C454       H458 0.022       .   A
C455       C462 0.028       .   A
C455       C466 0.028       .   A
N456       H460 0.021       .   A
N456       H461 0.021       .   A
C462       C463 0.027       .   A
C462       H469 0.022       .   A
C463       C464 0.027       .   A
C463       H468 0.022       .   A
C464       C465 0.027       .   A
C464       C467 0.032       .   A
C465       C466 0.028       .   A
C465       H471 0.022       .   A
C466       H470 0.022       .   A
C467       C472 0.032       .   A
C467       N475 0.030       .   A
C467       H481 0.022       .   A
C472       C473 0.032       .   A
C472       H478 0.022       .   A
C472       H480 0.022       .   A
C473       N474 0.030       .   A
C473       H479 0.022       .   A
N474       N475 0.030       .   A
N474       H477 0.021       .   A
N475       H476 0.021       .   A
C416       C417 0.027       .   A
C416       C421 0.027       .   A
C417       C418 0.027       .   A
C417       H424 0.022       .   A
C418       C419 0.028       .   A
C418       N423 0.028       .   A
C419       C420 0.028       .   A
C419       C422 0.028       .   A
C420       C421 0.027       .   A
C420      Cl426 0.035       .   A
C421       H425 0.022       .   A
C422       C429 0.028       .   A
C422       C433 0.028       .   A
N423       H427 0.021       .   A
N423       H428 0.021       .   A
C429       C430 0.027       .   A
C429       H436 0.022       .   A
C430       C431 0.027       .   A
C430       H435 0.022       .   A
C431       C432 0.027       .   A
C431       C434 0.032       .   A
C432       C433 0.028       .   A
C432       H438 0.022       .   A
C433       H437 0.022       .   A
C434       C439 0.032       .   A
C434       N442 0.030       .   A
C434       H448 0.022       .   A
C439       C440 0.032       .   A
C439       H445 0.022       .   A
C439       H447 0.022       .   A
C440       N441 0.030       .   A
C440       H446 0.022       .   A
N441       N442 0.030       .   A
N441       H444 0.021       .   A
N442       H443 0.021       .   A
C383       C384 0.027       .   A
C383       C388 0.027       .   A
C384       C385 0.027       .   A
C384       H391 0.022       .   A
C385       C386 0.028       .   A
C385       N390 0.028       .   A
C386       C387 0.028       .   A
C386       C389 0.028       .   A
C387       C388 0.027       .   A
C387      Cl393 0.035       .   A
C388       H392 0.022       .   A
C389       C396 0.028       .   A
C389       C400 0.028       .   A
N390       H394 0.021       .   A
N390       H395 0.021       .   A
C396       C397 0.027       .   A
C396       H403 0.022       .   A
C397       C398 0.027       .   A
C397       H402 0.022       .   A
C398       C399 0.027       .   A
C398       C401 0.032       .   A
C399       C400 0.028       .   A
C399       H405 0.022       .   A
C400       H404 0.022       .   A
C401       C406 0.032       .   A
C401       N409 0.030       .   A
C401       H415 0.022       .   A
C406       C407 0.032       .   A
C406       H412 0.022       .   A
C406       H414 0.022       .   A
C407       N408 0.030       .   A
C407       H413 0.022       .   A
N408       N409 0.030       .   A
N408       H411 0.021       .   A
N409       H410 0.021       .   A
C350       C351 0.027       .   A
C350       C355 0.027       .   A
C351       C352 0.027       .   A
C351       H358 0.022       .   A
C352       C353 0.028       .   A
C352       N357 0.028       .   A
C353       C354 0.028       .   A
C353       C356 0.028       .   A
C354       C355 0.027       .   A
C354      Cl360 0.035       .   A
C355       H359 0.022       .   A
C356       C363 0.028       .   A
C356       C367 0.028       .   A
N357       H361 0.021       .   A
N357       H362 0.021       .   A
C363       C364 0.027       .   A
C363       H370 0.022       .   A
C364       C365 0.027       .   A
C364       H369 0.022       .   A
C365       C366 0.027       .   A
C365       C368 0.032       .   A
C366       C367 0.028       .   A
C366       H372 0.022       .   A
C367       H371 0.022       .   A
C368       C373 0.032       .   A
C368       N376 0.030       .   A
C368       H382 0.022       .   A
C373       C374 0.032       .   A
C373       H379 0.022       .   A
C373       H381 0.022       .   A
C374       N375 0.030       .   A
C374       H380 0.022       .   A
N375       N376 0.030       .   A
N375       H378 0.021       .   A
N376       H377 0.021       .   A
C317       C318 0.027       .   A
C317       C322 0.027       .   A
C318       C319 0.027       .   A
C318       H325 0.022       .   A
C319       C320 0.028       .   A
C319       N324 0.028       .   A
C320       C321 0.028       .   A
C320       C323 0.028       .   A
C321       C322 0.027       .   A
C321      Cl327 0.035       .   A
C322       H326 0.022       .   A
C323       C330 0.028       .   A
C323       C334 0.028       .   A
N324       H328 0.021       .   A
N324       H329 0.021       .   A
C330       C331 0.027       .   A
C330       H337 0.022       .   A
C331       C332 0.027       .   A
C331       H336 0.022       .   A
C332       C333 0.027       .   A
C332       C335 0.032       .   A
C333       C334 0.028       .   A
C333       H339 0.022       .   A
C334       H338 0.022       .   A
C335       C340 0.032       .   A
C335       N343 0.030       .   A
C335       H349 0.022       .   A
C340       C341 0.032       .   A
C340       H346 0.022       .   A
C340       H348 0.022       .   A
C341       N342 0.030       .   A
C341       H347 0.022       .   A
N342       N343 0.030       .   A
N342       H345 0.021       .   A
N343       H344 0.021       .   A
C284       C285 0.027       .   A
C284       C289 0.027       .   A
C285       C286 0.027       .   A
C285       H292 0.022       .   A
C286       C287 0.028       .   A
C286       N291 0.028       .   A
C287       C288 0.028       .   A
C287       C290 0.028       .   A
C288       C289 0.027       .   A
C288      Cl294 0.035       .   A
C289       H293 0.022       .   A
C290       C297 0.028       .   A
C290       C301 0.028       .   A
N291       H295 0.021       .   A
N291       H296 0.021       .   A
C297       C298 0.027       .   A
C297       H304 0.022       .   A
C298       C299 0.027       .   A
C298       H303 0.022       .   A
C299       C300 0.027       .   A
C299       C302 0.032       .   A
C300       C301 0.028       .   A
C300       H306 0.022       .   A
C301       H305 0.022       .   A
C302       C307 0.032       .   A
C302       N310 0.030       .   A
C302       H316 0.022       .   A
C307       C308 0.032       .   A
C307       H313 0.022       .   A
C307       H315 0.022       .   A
C308       N309 0.030       .   A
C308       H314 0.022       .   A
N309       N310 0.030       .   A
N309       H312 0.021       .   A
N310       H311 0.021       .   A
C251       C252 0.027       .   A
C251       C256 0.027       .   A
C252       C253 0.027       .   A
C252       H259 0.022       .   A
C253       C254 0.028       .   A
C253       N258 0.028       .   A
C254       C255 0.028       .   A
C254       C257 0.028       .   A
C255       C256 0.027       .   A
C255      Cl261 0.035       .   A
C256       H260 0.022       .   A
C257       C264 0.028       .   A
C257       C268 0.028       .   A
N258       H262 0.021       .   A
N258       H263 0.021       .   A
C264       C265 0.027       .   A
C264       H271 0.022       .   A
C265       C266 0.027       .   A
C265       H270 0.022       .   A
C266       C267 0.027       .   A
C266       C269 0.032       .   A
C267       C268 0.028       .   A
C267       H273 0.022       .   A
C268       H272 0.022       .   A
C269       C274 0.032       .   A
C269       N277 0.030       .   A
C269       H283 0.022       .   A
C274       C275 0.032       .   A
C274       H280 0.022       .   A
C274       H282 0.022       .   A
C275       N276 0.030       .   A
C275       H281 0.022       .   A
N276       N277 0.030       .   A
N276       H279 0.021       .   A
N277       H278 0.021       .   A
C218       C219 0.027       .   A
C218       C223 0.027       .   A
C219       C220 0.027       .   A
C219       H226 0.022       .   A
C220       C221 0.028       .   A
C220       N225 0.028       .   A
C221       C222 0.028       .   A
C221       C224 0.028       .   A
C222       C223 0.027       .   A
C222      Cl228 0.035       .   A
C223       H227 0.022       .   A
C224       C231 0.028       .   A
C224       C235 0.028       .   A
N225       H229 0.021       .   A
N225       H230 0.021       .   A
C231       C232 0.027       .   A
C231       H238 0.022       .   A
C232       C233 0.027       .   A
C232       H237 0.022       .   A
C233       C234 0.027       .   A
C233       C236 0.032       .   A
C234       C235 0.028       .   A
C234       H240 0.022       .   A
C235       H239 0.022       .   A
C236       C241 0.032       .   A
C236       N244 0.030       .   A
C236       H250 0.022       .   A
C241       C242 0.032       .   A
C241       H247 0.022       .   A
C241       H249 0.022       .   A
C242       N243 0.030       .   A
C242       H248 0.022       .   A
N243       N244 0.030       .   A
N243       H246 0.021       .   A
N244       H245 0.021       .   A
C185       C186 0.027       .   A
C185       C190 0.027       .   A
C186       C187 0.027       .   A
C186       H193 0.022       .   A
C187       C188 0.028       .   A
C187       N192 0.028       .   A
C188       C189 0.028       .   A
C188       C191 0.028       .   A
C189       C190 0.027       .   A
C189      Cl195 0.035       .   A
C190       H194 0.022       .   A
C191       C198 0.028       .   A
C191       C202 0.028       .   A
N192       H196 0.021       .   A
N192       H197 0.021       .   A
C198       C199 0.027       .   A
C198       H205 0.022       .   A
C199       C200 0.027       .   A
C199       H204 0.022       .   A
C200       C201 0.027       .   A
C200       C203 0.032       .   A
C201       C202 0.028       .   A
C201       H207 0.022       .   A
C202       H206 0.022       .   A
C203       C208 0.032       .   A
C203       N211 0.030       .   A
C203       H217 0.022       .   A
C208       C209 0.032       .   A
C208       H214 0.022       .   A
C208       H216 0.022       .   A
C209       N210 0.030       .   A
C209       H215 0.022       .   A
N210       N211 0.030       .   A
N210       H213 0.021       .   A
N211       H212 0.021       .   A
