data_pcu_v1-6c_Zn_1_Ch_1-17_fer_tobacco
_audit_creation_date              2021-04-07
_audit_creation_method            'tobacco_3.0'
_symmetry_space_group_name_H-M    'P1'
_symmetry_Int_Tables_number       1
_symmetry_cell_setting            triclinic
loop_
_symmetry_equiv_pos_as_xyz
  x,y,z
_cell_length_a                    43.8495272737844
_cell_length_b                    43.8495272737844
_cell_length_c                    43.8495272737844
_cell_angle_alpha                 90.0
_cell_angle_beta                  90.0
_cell_angle_gamma                 90.0
loop_
_atom_site_label
_atom_site_type_symbol
_atom_site_fract_x
_atom_site_fract_y
_atom_site_fract_z
_atom_site_charge
Zn1       Zn   -0.0255692608   -0.0255692608    0.0255692608          1.4972
Zn2       Zn    0.0255692608    0.0255692608    0.0255692608          1.4936
Zn3       Zn    0.0255692608   -0.0255692608   -0.0255692608          1.4911
Zn4       Zn   -0.0255692608    0.0255692608   -0.0255692608          1.4948
O5         O    0.0000000000    0.0000000000    0.0000000000          -2.303
O6         O   -0.0187915367   -0.0187915367    0.0683382510         -1.2093
O7         O    0.0683382510    0.0187915367    0.0187915367         -1.2075
O8         O    0.0187915367   -0.0683382510   -0.0187915367         -1.2027
O9         O    0.0187915367    0.0187915367    0.0683382510         -1.2095
O10        O   -0.0187915367   -0.0683382510    0.0187915367         -1.2055
O11        O    0.0683382510   -0.0187915367   -0.0187915367         -1.2113
O12        O   -0.0187915367    0.0187915367   -0.0683382510         -1.2052
O13        O    0.0187915367    0.0683382510    0.0187915367         -1.2128
O14        O    0.0187915367   -0.0187915367   -0.0683382510         -1.2067
O15        O   -0.0187915367    0.0683382510   -0.0187915367         -1.2114
O16        O   -0.0683382510    0.0187915367   -0.0187915367         -1.2104
O17        O   -0.0683382510   -0.0187915367    0.0187915367         -1.2083
C18        C   -0.0000000000   -0.0000000000    0.0817066961          0.3096
C19        C    0.0817066961   -0.0000000000   -0.0000000000          0.3145
C20        C   -0.0000000000   -0.0817066961    0.0000000000          0.3041
C21        C    0.0000000000    0.0000000000   -0.0817066961          0.3078
C22        C    0.0000000000    0.0817066961   -0.0000000000          0.3192
C23        C   -0.0817066961    0.0000000000    0.0000000000          0.3097
Zn24      Zn    0.9744307392    0.0255692608    0.4744307392          1.4972
Zn25      Zn    1.0255692608   -0.0255692608    0.4744307392          1.4936
Zn26      Zn    1.0255692608    0.0255692608    0.5255692608          1.4911
Zn27      Zn    0.9744307392   -0.0255692608    0.5255692608          1.4948
O28        O    1.0000000000    0.0000000000    0.5000000000          -2.303
O29        O    0.9812084633    0.0187915367    0.4316617490         -1.2093
O30        O    1.0683382510   -0.0187915367    0.4812084633         -1.2075
O31        O    1.0187915367    0.0683382510    0.5187915367         -1.2027
O32        O    1.0187915367   -0.0187915367    0.4316617490         -1.2095
O33        O    0.9812084633    0.0683382510    0.4812084633         -1.2055
O34        O    1.0683382510    0.0187915367    0.5187915367         -1.2113
O35        O    0.9812084633   -0.0187915367    0.5683382510         -1.2052
O36        O    1.0187915367   -0.0683382510    0.4812084633         -1.2128
O37        O    1.0187915367    0.0187915367    0.5683382510         -1.2067
O38        O    0.9812084633   -0.0683382510    0.5187915367         -1.2114
O39        O    0.9316617490   -0.0187915367    0.5187915367         -1.2104
O40        O    0.9316617490    0.0187915367    0.4812084633         -1.2083
C41        C    1.0000000000    0.0000000000    0.4182933039          0.3096
C42        C    1.0817066961    0.0000000000    0.5000000000          0.3145
C43        C    1.0000000000    0.0817066961    0.5000000000          0.3041
C44        C    1.0000000000    0.0000000000    0.5817066961          0.3078
C45        C    1.0000000000   -0.0817066961    0.5000000000          0.3192
C46        C    0.9182933039    0.0000000000    0.5000000000          0.3097
Zn47      Zn    1.0255692608    0.4744307392   -0.0255692608          1.4972
Zn48      Zn    0.9744307392    0.4744307392    0.0255692608          1.4936
Zn49      Zn    1.0255692608    0.5255692608    0.0255692608          1.4911
Zn50      Zn    0.9744307392    0.5255692608   -0.0255692608          1.4948
O51        O    1.0000000000    0.5000000000    0.0000000000          -2.303
O52        O    1.0187915367    0.4316617490   -0.0187915367         -1.2093
O53        O    0.9812084633    0.4812084633    0.0683382510         -1.2075
O54        O    1.0683382510    0.5187915367    0.0187915367         -1.2027
O55        O    0.9812084633    0.4316617490    0.0187915367         -1.2095
O56        O    1.0683382510    0.4812084633   -0.0187915367         -1.2055
O57        O    1.0187915367    0.5187915367    0.0683382510         -1.2113
O58        O    0.9812084633    0.5683382510   -0.0187915367         -1.2052
O59        O    0.9316617490    0.4812084633    0.0187915367         -1.2128
O60        O    1.0187915367    0.5683382510    0.0187915367         -1.2067
O61        O    0.9316617490    0.5187915367   -0.0187915367         -1.2114
O62        O    0.9812084633    0.5187915367   -0.0683382510         -1.2104
O63        O    1.0187915367    0.4812084633   -0.0683382510         -1.2083
C64        C    1.0000000000    0.4182933039    0.0000000000          0.3096
C65        C    1.0000000000    0.5000000000    0.0817066961          0.3145
C66        C    1.0817066961    0.5000000000    0.0000000000          0.3041
C67        C    1.0000000000    0.5817066961    0.0000000000          0.3078
C68        C    0.9182933039    0.5000000000    0.0000000000          0.3192
C69        C    1.0000000000    0.5000000000   -0.0817066961          0.3097
Zn70      Zn    1.0255692608    0.4744307392    0.4744307392          1.4972
Zn71      Zn    0.9744307392    0.5255692608    0.4744307392          1.4936
Zn72      Zn    0.9744307392    0.4744307392    0.5255692608          1.4911
Zn73      Zn    1.0255692608    0.5255692608    0.5255692608          1.4948
O74        O    1.0000000000    0.5000000000    0.5000000000          -2.303
O75        O    1.0187915367    0.4812084633    0.4316617490         -1.2093
O76        O    0.9316617490    0.5187915367    0.4812084633         -1.2075
O77        O    0.9812084633    0.4316617490    0.5187915367         -1.2027
O78        O    0.9812084633    0.5187915367    0.4316617490         -1.2095
O79        O    1.0187915367    0.4316617490    0.4812084633         -1.2055
O80        O    0.9316617490    0.4812084633    0.5187915367         -1.2113
O81        O    1.0187915367    0.5187915367    0.5683382510         -1.2052
O82        O    0.9812084633    0.5683382510    0.4812084633         -1.2128
O83        O    0.9812084633    0.4812084633    0.5683382510         -1.2067
O84        O    1.0187915367    0.5683382510    0.5187915367         -1.2114
O85        O    1.0683382510    0.5187915367    0.5187915367         -1.2104
O86        O    1.0683382510    0.4812084633    0.4812084633         -1.2083
C87        C    1.0000000000    0.5000000000    0.4182933039          0.3096
C88        C    0.9182933039    0.5000000000    0.5000000000          0.3145
C89        C    1.0000000000    0.4182933039    0.5000000000          0.3041
C90        C    1.0000000000    0.5000000000    0.5817066961          0.3078
C91        C    1.0000000000    0.5817066961    0.5000000000          0.3192
C92        C    1.0817066961    0.5000000000    0.5000000000          0.3097
Zn93      Zn    0.4744307392    0.9744307392   -0.0255692608          1.4972
Zn94      Zn    0.4744307392    1.0255692608    0.0255692608          1.4936
Zn95      Zn    0.5255692608    0.9744307392    0.0255692608          1.4911
Zn96      Zn    0.5255692608    1.0255692608   -0.0255692608          1.4948
O97        O    0.5000000000    1.0000000000    0.0000000000          -2.303
O98        O    0.4316617490    0.9812084633   -0.0187915367         -1.2093
O99        O    0.4812084633    1.0187915367    0.0683382510         -1.2075
O100       O    0.5187915367    0.9316617490    0.0187915367         -1.2027
O101       O    0.4316617490    1.0187915367    0.0187915367         -1.2095
O102       O    0.4812084633    0.9316617490   -0.0187915367         -1.2055
O103       O    0.5187915367    0.9812084633    0.0683382510         -1.2113
O104       O    0.5683382510    1.0187915367   -0.0187915367         -1.2052
O105       O    0.4812084633    1.0683382510    0.0187915367         -1.2128
O106       O    0.5683382510    0.9812084633    0.0187915367         -1.2067
O107       O    0.5187915367    1.0683382510   -0.0187915367         -1.2114
O108       O    0.5187915367    1.0187915367   -0.0683382510         -1.2104
O109       O    0.4812084633    0.9812084633   -0.0683382510         -1.2083
C110       C    0.4182933039    1.0000000000    0.0000000000          0.3096
C111       C    0.5000000000    1.0000000000    0.0817066961          0.3145
C112       C    0.5000000000    0.9182933039    0.0000000000          0.3041
C113       C    0.5817066961    1.0000000000    0.0000000000          0.3078
C114       C    0.5000000000    1.0817066961    0.0000000000          0.3192
C115       C    0.5000000000    1.0000000000   -0.0817066961          0.3097
Zn116     Zn    0.4744307392    1.0255692608    0.5255692608          1.4972
Zn117     Zn    0.4744307392    0.9744307392    0.4744307392          1.4936
Zn118     Zn    0.5255692608    1.0255692608    0.4744307392          1.4911
Zn119     Zn    0.5255692608    0.9744307392    0.5255692608          1.4948
O120       O    0.5000000000    1.0000000000    0.5000000000          -2.303
O121       O    0.4316617490    1.0187915367    0.5187915367         -1.2093
O122       O    0.4812084633    0.9812084633    0.4316617490         -1.2075
O123       O    0.5187915367    1.0683382510    0.4812084633         -1.2027
O124       O    0.4316617490    0.9812084633    0.4812084633         -1.2095
O125       O    0.4812084633    1.0683382510    0.5187915367         -1.2055
O126       O    0.5187915367    1.0187915367    0.4316617490         -1.2113
O127       O    0.5683382510    0.9812084633    0.5187915367         -1.2052
O128       O    0.4812084633    0.9316617490    0.4812084633         -1.2128
O129       O    0.5683382510    1.0187915367    0.4812084633         -1.2067
O130       O    0.5187915367    0.9316617490    0.5187915367         -1.2114
O131       O    0.5187915367    0.9812084633    0.5683382510         -1.2104
O132       O    0.4812084633    1.0187915367    0.5683382510         -1.2083
C133       C    0.4182933039    1.0000000000    0.5000000000          0.3096
C134       C    0.5000000000    1.0000000000    0.4182933039          0.3145
C135       C    0.5000000000    1.0817066961    0.5000000000          0.3041
C136       C    0.5817066961    1.0000000000    0.5000000000          0.3078
C137       C    0.5000000000    0.9182933039    0.5000000000          0.3192
C138       C    0.5000000000    1.0000000000    0.5817066961          0.3097
Zn139     Zn    0.4744307392    0.5255692608   -0.0255692608          1.4972
Zn140     Zn    0.4744307392    0.4744307392    0.0255692608          1.4936
Zn141     Zn    0.5255692608    0.4744307392   -0.0255692608          1.4911
Zn142     Zn    0.5255692608    0.5255692608    0.0255692608          1.4948
O143       O    0.5000000000    0.5000000000    0.0000000000          -2.303
O144       O    0.4316617490    0.5187915367   -0.0187915367         -1.2093
O145       O    0.4812084633    0.4316617490    0.0187915367         -1.2075
O146       O    0.5187915367    0.4812084633   -0.0683382510         -1.2027
O147       O    0.4316617490    0.4812084633    0.0187915367         -1.2095
O148       O    0.4812084633    0.5187915367   -0.0683382510         -1.2055
O149       O    0.5187915367    0.4316617490   -0.0187915367         -1.2113
O150       O    0.5683382510    0.5187915367    0.0187915367         -1.2052
O151       O    0.4812084633    0.4812084633    0.0683382510         -1.2128
O152       O    0.5683382510    0.4812084633   -0.0187915367         -1.2067
O153       O    0.5187915367    0.5187915367    0.0683382510         -1.2114
O154       O    0.5187915367    0.5683382510    0.0187915367         -1.2104
O155       O    0.4812084633    0.5683382510   -0.0187915367         -1.2083
C156       C    0.4182933039    0.5000000000    0.0000000000          0.3096
C157       C    0.5000000000    0.4182933039    0.0000000000          0.3145
C158       C    0.5000000000    0.5000000000   -0.0817066961          0.3041
C159       C    0.5817066961    0.5000000000    0.0000000000          0.3078
C160       C    0.5000000000    0.5000000000    0.0817066961          0.3192
C161       C    0.5000000000    0.5817066961    0.0000000000          0.3097
Zn162     Zn    0.4744307392    0.5255692608    0.4744307392          1.4972
Zn163     Zn    0.4744307392    0.4744307392    0.5255692608          1.4936
Zn164     Zn    0.5255692608    0.4744307392    0.4744307392          1.4911
Zn165     Zn    0.5255692608    0.5255692608    0.5255692608          1.4948
O166       O    0.5000000000    0.5000000000    0.5000000000          -2.303
O167       O    0.4316617490    0.5187915367    0.4812084633         -1.2093
O168       O    0.4812084633    0.4316617490    0.5187915367         -1.2075
O169       O    0.5187915367    0.4812084633    0.4316617490         -1.2027
O170       O    0.4316617490    0.4812084633    0.5187915367         -1.2095
O171       O    0.4812084633    0.5187915367    0.4316617490         -1.2055
O172       O    0.5187915367    0.4316617490    0.4812084633         -1.2113
O173       O    0.5683382510    0.5187915367    0.5187915367         -1.2052
O174       O    0.4812084633    0.4812084633    0.5683382510         -1.2128
O175       O    0.5683382510    0.4812084633    0.4812084633         -1.2067
O176       O    0.5187915367    0.5187915367    0.5683382510         -1.2114
O177       O    0.5187915367    0.5683382510    0.5187915367         -1.2104
O178       O    0.4812084633    0.5683382510    0.4812084633         -1.2083
C179       C    0.4182933039    0.5000000000    0.5000000000          0.3096
C180       C    0.5000000000    0.4182933039    0.5000000000          0.3145
C181       C    0.5000000000    0.5000000000    0.4182933039          0.3041
C182       C    0.5817066961    0.5000000000    0.5000000000          0.3078
C183       C    0.5000000000    0.5000000000    0.5817066961          0.3192
C184       C    0.5000000000    0.5817066961    0.5000000000          0.3097
C829       C    0.5000000000    0.5000000000   -0.3831731989          -0.463
C830       C    0.5024928918    0.5267251253   -0.3681955981          0.5338
C831       C    0.5045946502    0.5289308241   -0.3377645989          0.5313
C832       C    0.5043591249    0.5038497353   -0.3199451901          0.5318
C833       C    0.5027346964    0.4768655053   -0.3346888710          0.5342
C834       C    0.5004946320    0.4749720433   -0.3654227818         -0.4632
C835       C    0.5057604120    0.5074228341   -0.2842511345          0.5296
C836       C    0.5073508280    0.5611441672   -0.3247213482          0.5278
H837       H    0.5024585800    0.5479414492   -0.3809533093          0.5336
H838       H    0.4988714603    0.4526346773   -0.3760825717          -0.461
H839       H    0.5028742904    0.4557568525   -0.3217610922          0.5343
H840       H    0.5150511837    0.5774126013   -0.3419234466          0.5214
H841       H    0.5237282486    0.5623833794   -0.3060451555          0.5138
H842       H    0.4852712187    0.5691998017   -0.3164070885         -0.4543
C843       C    0.5069580809    0.4804307440   -0.2609657113          0.5288
C844       C    0.4885166670    0.4918779608   -0.2324564676         -0.4569
N845       N    0.4820844263    0.5240349500   -0.2393959105         -0.4523
N846       N    0.4797409435    0.5253631560   -0.2725699296         -0.4496
N847       N    0.5033780586    0.4926429656   -0.2011403661            0.53
H848       H    0.4835588430    0.5476792052   -0.2777645705         -0.4533
H849       H    0.4608862805    0.5291695526   -0.2313903503         -0.4352
H850       H    0.5304678952    0.4746451759   -0.2550959050          0.5094
H851       H    0.4666974708    0.4795235982   -0.2311246786         -0.4386
H852       H    0.4958209456    0.4601345700   -0.2701669996         -0.4612
H853       H    0.5264328675    0.5205784942   -0.2792724584          0.5121
N854       N    0.4875027857    0.4885886276   -0.1765269865         -0.4573
N855       N    0.5007257228    0.4982264785   -0.1460775746          0.5307
N856       N    0.5000000000    0.5000000000   -0.1168268011          0.5306
C801       C    0.5000000000    0.5000000000    0.1168268011          -0.463
C802       C    0.4962720291    0.4734190093    0.1318044019          0.5338
C803       C    0.4940703708    0.4713130188    0.1622354011          0.5313
C804       C    0.4954672552    0.4963562854    0.1800548099          0.5318
C805       C    0.4983396950    0.5232363249    0.1653111290          0.5342
C806       C    0.5006650498    0.5250240082    0.1345772182         -0.4632
C807       C    0.4939019864    0.4928519204    0.2157488655          0.5296
C808       C    0.4898252138    0.4392618935    0.1752786518          0.5278
H809       H    0.4953236860    0.4522238632    0.1190466907          0.5336
H810       H    0.5033210181    0.5472622284    0.1239174283          -0.461
H811       H    0.4991778822    0.5443287916    0.1782389078          0.5343
H812       H    0.4813796608    0.4233675530    0.1580765534          0.5214
H813       H    0.4734079742    0.4387825191    0.1939548445          0.5138
H814       H    0.5115080392    0.4301923028    0.1835929115         -0.4543
C815       C    0.4939557211    0.5198705149    0.2390342887          0.5288
C816       C    0.5118471766    0.5075814816    0.2675435324         -0.4569
N817       N    0.5167831881    0.4751610951    0.2606040895         -0.4523
N818       N    0.5190626413    0.4737257777    0.2274300704         -0.4496
N819       N    0.4969663019    0.5075055920    0.2988596339            0.53
H820       H    0.5142152877    0.4516104986    0.2222354295         -0.4533
H821       H    0.5377207813    0.4690502260    0.2686096497         -0.4352
H822       H    0.4707390890    0.5267387141    0.2449040950          0.5094
H823       H    0.5342151421    0.5189120473    0.2688753214         -0.4386
H824       H    0.5060209075    0.5396291014    0.2298330004         -0.4612
H825       H    0.4726424195    0.4806678066    0.2207275416          0.5121
N826       N    0.5130123129    0.5108203279    0.3234730135         -0.4573
N827       N    0.4993571953    0.5018052296    0.3539224254          0.5307
N828       N    0.5000000000    0.5000000000    0.3831731989          0.5306
C773       C    0.5000000000    0.8831731989    0.5000000000          -0.463
C774       C    0.5110187212    0.8681955981    0.4755248164          0.5338
C775       C    0.5102790031    0.8377645989    0.4725692601          0.5313
C776       C    0.4981080766    0.8199451901    0.4945006312          0.5318
C777       C    0.4862061287    0.8346888710    0.5187726536          0.5342
C778       C    0.4872202106    0.8654227818    0.5215248754         -0.4632
C779       C    0.4986523352    0.7842511345    0.4907013651          0.5296
C780       C    0.5237767781    0.8247213482    0.4431905934          0.5278
H781       H    0.5215173538    0.8809533093    0.4570881060          0.5336
H782       H    0.4776100757    0.8760825717    0.5417545049          -0.461
H783       H    0.4756690516    0.8217610922    0.5370637638          0.5343
H784       H    0.5251064711    0.8419234466    0.4252409600          0.5214
H785       H    0.5101434082    0.8060451555    0.4340316206          0.5138
H786       H    0.5469561902    0.8164070885    0.4470786834         -0.4543
C787       C    0.4842918908    0.7609657113    0.5135877141          0.5288
C788       C    0.5059803664    0.7324564676    0.5127306588         -0.4569
N789       N    0.5274422835    0.7393959105    0.4879348570         -0.4523
N790       N    0.5301359876    0.7725699296    0.4879359500         -0.4496
N791       N    0.4934316275    0.7011403661    0.5047322001            0.53
H792       H    0.5378266629    0.7777645705    0.4666419151         -0.4533
H793       H    0.5484136847    0.7313903503    0.4939286755         -0.4352
H794       H    0.4609886285    0.7550959050    0.5070194471          0.5094
H795       H    0.5188623531    0.7311246786    0.5342425630         -0.4386
H796       H    0.4839640461    0.7701669996    0.5367364286         -0.4612
H797       H    0.4871631513    0.7792724584    0.4690583416          0.5121
N798       N    0.5052391668    0.6765269865    0.5160919519         -0.4573
N799       N    0.4984936670    0.6460775746    0.5011844884          0.5307
N800       N    0.5000000000    0.6168268011    0.5000000000          0.5306
C745       C    0.5000000000    1.1168268011    0.5000000000          -0.463
C746       C    0.4790093630    1.1318044019    0.5167284187          0.5338
C747       C    0.4759626767    1.1622354011    0.5167424753          0.5313
C748       C    0.4942035918    1.1800548099    0.4995266250          0.5318
C749       C    0.5147789853    1.1653111290    0.4819926403          0.5342
C750       C    0.5176964917    1.1345772182    0.4822947053         -0.4632
C751       C    0.4906568767    1.2157488655    0.5009934081          0.5296
C752       C    0.4508338025    1.1752786518    0.5370854268          0.5278
H753       H    0.4637410927    1.1190466907    0.5314597966          0.5336
H754       H    0.5349217015    1.1239174283    0.4679809095          -0.461
H755       H    0.5298966707    1.1782389078    0.4672600134          0.5343
H756       H    0.4337703284    1.1580765534    0.5428121427          0.5214
H757       H    0.4385881822    1.1939548445    0.5261400927          0.5138
H758       H    0.4603326120    1.1835929115    0.5585836828         -0.4543
C759       C    0.5092817252    1.2390342887    0.4814198965          0.5288
C760       C    0.5138140798    1.2675435324    0.5026468199         -0.4569
N761       N    0.4950950153    1.2606040895    0.5295734294         -0.4523
N762       N    0.4957621325    1.2274300704    0.5321832182         -0.4496
N763       N    0.5029611282    1.2988596339    0.4924654825            0.53
H764       H    0.4770309544    1.2222354295    0.5449003474         -0.4533
H765       H    0.5060882027    1.2686096497    0.5484115651         -0.4352
H766       H    0.4971553399    1.2449040950    0.4604643496          0.5094
H767       H    0.5378432569    1.2688753214    0.5098096577         -0.4386
H768       H    0.5316305600    1.2298330004    0.4753783698         -0.4612
H769       H    0.4668450429    1.2207275416    0.4952125449          0.5121
N770       N    0.5168877252    1.3234730135    0.5010975066         -0.4573
N771       N    0.5007752445    1.3539224254    0.4982475595          0.5307
N772       N    0.5000000000    1.3831731989    0.5000000000          0.5306
C717       C    0.5000000000    0.8831731989    0.0000000000          -0.463
C718       C    0.4934497966    0.8681955981   -0.0260296306          0.5338
C719       C    0.4910354750    0.8377645989   -0.0278880025          0.5313
C720       C    0.4951034642    0.8199451901   -0.0031378924          0.5318
C721       C    0.5008350383    0.8346888710    0.0232805954          0.5342
C722       C    0.5033382942    0.8654227818    0.0248092537         -0.4632
C723       C    0.4931722822    0.7842511345   -0.0064546946          0.5296
C724       C    0.4833858601    0.8247213482   -0.0593010473          0.5278
H725       H    0.4902394454    0.8809533093   -0.0470016887          0.5336
H726       H    0.5083580587    0.8760825717    0.0466357186          -0.461
H727       H    0.5039248812    0.8217610922    0.0441623476          0.5343
H728       H    0.4732884026    0.8419234466   -0.0742006707          0.5214
H729       H    0.4670115524    0.8060451555   -0.0580213592          0.5138
H730       H    0.5039739900    0.8164070885   -0.0706382118         -0.4543
C731       C    0.4961161498    0.7609657113    0.0204030972          0.5288
C732       C    0.5125902527    0.7324564676    0.0062705656         -0.4569
N733       N    0.5140296141    0.7393959105   -0.0264918200         -0.4523
N734       N    0.5161424362    0.7725699296   -0.0281627557         -0.4496
N735       N    0.4977866577    0.7011403661    0.0077870630            0.53
H736       H    0.5089570145    0.7777645705   -0.0496325513         -0.4533
H737       H    0.5341933118    0.7313903503   -0.0348075176         -0.4352
H738       H    0.4737675111    0.7550959050    0.0297155897          0.5094
H739       H    0.5360419936    0.7311246786    0.0151431891         -0.4386
H740       H    0.5102258643    0.7701669996    0.0387575631         -0.4612
H741       H    0.4707312667    0.7792724584   -0.0162945440          0.5121
N742       N    0.5140951934    0.6765269865    0.0093661789         -0.4573
N743       N    0.4995540072    0.6460775746    0.0018636368          0.5307
N744       N    0.5000000000    0.6168268011    0.0000000000          0.5306
C689       C    0.5000000000    1.3831731989    0.0000000000          -0.463
C690       C    0.4799346152    1.3681955981    0.0178277077          0.5338
C691       C    0.4794007987    1.3377645989    0.0208272969          0.5313
C692       C    0.4994771797    1.3199451901    0.0057921577          0.5318
C693       C    0.5202654440    1.3346888710   -0.0114889158          0.5342
C694       C    0.5204657301    1.3654227818   -0.0144151715         -0.4632
C695       C    0.4974266119    1.2842511345    0.0090365085          0.5296
C696       C    0.4550676533    1.3247213482    0.0421156512          0.5278
H697       H    0.4628135863    1.3809533093    0.0303578293          0.5336
H698       H    0.5375092864    1.3760825717   -0.0289447893          -0.461
H699       H    0.5373620038    1.3217610922   -0.0238704485          0.5343
H700       H    0.4465127980    1.3419234466    0.0579514295          0.5214
H701       H    0.4637624953    1.3060451555    0.0560496125          0.5138
H702       H    0.4355059247    1.3164070885    0.0290871760         -0.4543
C703       C    0.5198915892    1.2609657113   -0.0059745585          0.5288
C704       C    0.4997496069    1.2324564676   -0.0140631348         -0.4569
N705       N    0.4700233301    1.2393959105   -0.0002141585         -0.4523
N706       N    0.4675656840    1.2725699296   -0.0013168909         -0.4496
N707       N    0.5079293422    1.2011403661   -0.0016317986            0.53
H708       H    0.4518383517    1.2777645705    0.0149690978         -0.4533
H709       H    0.4533377345    1.2313903503   -0.0142610951         -0.4352
H710       H    0.5384701327    1.2550959050    0.0095503211          0.5094
H711       H    0.4967928215    1.2311246786   -0.0389622316         -0.4386
H712       H    0.5296586686    1.2701669996   -0.0269644280         -0.4612
H713       H    0.4990587909    1.2792724584    0.0334855944          0.5121
N714       N    0.5018007572    1.1765269865   -0.0168272712         -0.4573
N715       N    0.5018590383    1.1460775746   -0.0004647886          0.5315
N716       N    0.5000000000    1.1168268011    0.0000000000          0.5306
C661       C    0.5000000000    1.0000000000   -0.3831731989          -0.463
C662       C    0.4741632990    1.0072740439   -0.3681955981          0.5338
C663       C    0.4723730257    1.0097392857   -0.3377645989          0.5313
C664       C    0.4969999741    1.0049821959   -0.3199451901          0.5318
C665       C    0.5232482257    0.9985156108   -0.3346888710          0.5342
C666       C    0.5247064320    0.9959706706   -0.3654227818         -0.4632
C667       C    0.4937383558    1.0070051855   -0.2842511345          0.5296
C668       C    0.4411856877    1.0182625443   -0.3247213482          0.5278
H669       H    0.4532889978    1.0110683982   -0.3809533093          0.5336
H670       H    0.5463843131    0.9903437644   -0.3760825717          -0.461
H671       H    0.5440356192    0.9948442381   -0.3217610922          0.5343
H672       H    0.4265736501    1.0287718631   -0.3419234466          0.5214
H673       H    0.4429218243    1.0345947635   -0.3060451555          0.5138
H674       H    0.4292783993    0.9979988112   -0.3164070885         -0.4543
C675       C    0.5205035351    1.0033129620   -0.2609657113          0.5288
C676       C    0.5059167757    0.9872396621   -0.2324564676         -0.4569
N677       N    0.4731269823    0.9867151394   -0.2393959105         -0.4523
N678       N    0.4713977363    0.9846497699   -0.2725699296         -0.4496
N679       N    0.5078457966    1.0019951719   -0.2011403661            0.53
H680       H    0.4501368211    0.9924315365   -0.2777645705         -0.4533
H681       H    0.4642518285    0.9667913553   -0.2313903503         -0.4352
H682       H    0.5304360693    1.0253930193   -0.2550959050          0.5094
H683       H    0.5141314916    0.9635494523   -0.2311246786         -0.4386
H684       H    0.5384571023    0.9886965367   -0.2701669996         -0.4612
H685       H    0.4845285851    1.0297120553   -0.2792724584          0.5121
N686       N    0.5089691860    0.9856489204   -0.1765269865         -0.4573
N687       N    0.5018753571    1.0003938119   -0.1460775746          0.5307
N688       N    0.5000000000    1.0000000000   -0.1168268011          0.5306
C633       C    0.5000000000    1.0000000000    0.1168268011          -0.463
C634       C    0.5266216351    0.9965743067    0.1318044019          0.5338
C635       C    0.5287525069    0.9943967207    0.1622354011          0.5313
C636       C    0.5036949845    0.9955089510    0.1800548099          0.5318
C637       C    0.4767840411    0.9980757703    0.1653111290          0.5342
C638       C    0.4749700505    1.0003806618    0.1345772182         -0.4632
C639       C    0.5072169092    0.9939836030    0.2157488655          0.5296
C640       C    0.5608498003    0.9905160311    0.1752786518          0.5278
H641       H    0.5478261889    0.9958668629    0.1190466907          0.5336
H642       H    0.4527030865    1.0027837682    0.1239174283          -0.461
H643       H    0.4556834119    0.9986742321    0.1782389078          0.5343
H644       H    0.5768390805    0.9822516291    0.1580765534          0.5214
H645       H    0.5615156910    0.9741052985    0.1939548445          0.5138
H646       H    0.5696724259    1.0123005135    0.1835929115         -0.4543
C647       C    0.4801994484    0.9937303248    0.2390342887          0.5288
C648       C    0.4922843896    1.0117602642    0.2675435324         -0.4569
N649       N    0.5246465958    1.0170643464    0.2606040895         -0.4523
N650       N    0.5260559193    1.0193599618    0.2274300704         -0.4496
N651       N    0.4925293642    0.9968812125    0.2988596339            0.53
H652       H    0.5482248507    1.0147642146    0.2222354295         -0.4533
H653       H    0.5305191587    1.0380700250    0.2686096497         -0.4352
H654       H    0.4735955007    0.9704371489    0.2449040950          0.5094
H655       H    0.4807003907    1.0339980376    0.2688753214         -0.4386
H656       H    0.4603050422    1.0055702176    0.2298330004         -0.4612
H657       H    0.5196418065    0.9728638553    0.2207275416          0.5121
N658       N    0.4890325131    1.0128885226    0.3234730135         -0.4573
N659       N    0.4982021910    0.9993367242    0.3539224254          0.5307
N660       N    0.5000000000    1.0000000000    0.3831731989          0.5306
C605       C    0.8831731989    0.5000000000    0.5000000000          -0.463
C606       C    0.8681955981    0.5176911094    0.4798140771          0.5338
C607       C    0.8377645989    0.5206870063    0.4792599141          0.5313
C608       C    0.8199451901    0.5057884758    0.4994378792          0.5318
C609       C    0.8346888710    0.4886488944    0.5203429548          0.5342
C610       C    0.8654227818    0.4857240655    0.5205630973         -0.4632
C611       C    0.7842511345    0.5090188343    0.4973653386          0.5296
C612       C    0.8247213482    0.5418097164    0.4547828410          0.5278
H613       H    0.8809533093    0.5301047385    0.4626083982          0.5336
H614       H    0.8760825717    0.4713104604    0.5377048765          -0.461
H615       H    0.8217610922    0.4763836847    0.5375231567          0.5343
H616       H    0.8419234466    0.5575870664    0.4461207021          0.5214
H617       H    0.8060451555    0.5558023704    0.4633829102          0.5138
H618       H    0.8164070885    0.5286487719    0.4353099898         -0.4543
C619       C    0.7609657113    0.4941605873    0.5199316815          0.5288
C620       C    0.7324564676    0.4859354897    0.4998450619         -0.4569
N621       N    0.7393959105    0.4995823888    0.4700254741         -0.4523
N622       N    0.7725699296    0.4984630013    0.4675753691         -0.4496
N623       N    0.7011403661    0.4984220570    0.5079402349            0.53
H624       H    0.7777645705    0.5146418703    0.4517378628         -0.4533
H625       H    0.7313903503    0.4854225273    0.4534356022         -0.4352
H626       H    0.7550959050    0.5098112055    0.5384044267          0.5094
H627       H    0.7311246786    0.4610168981    0.4970573398         -0.4386
H628       H    0.7701669996    0.4732374924    0.5298409984         -0.4612
H629       H    0.7792724584    0.5334784350    0.4988315391          0.5121
N630       N    0.6765269865    0.4831853385    0.5019149257         -0.4573
N631       N    0.6460775746    0.4995478397    0.5018621501          0.5307
N632       N    0.6168268011    0.5000000000    0.5000000000          0.5306
C577       C    1.1168268011    0.5000000000    0.5000000000          -0.463
C578       C    1.1318044019    0.5126112497    0.4763060511          0.5338
C579       C    1.1622354011    0.5120683619    0.4733080904          0.5313
C580       C    1.1800548099    0.4984754422    0.4943876783          0.5318
C581       C    1.1653111290    0.4849963134    0.5178205723          0.5342
C582       C    1.1345772182    0.4858263962    0.5206337643         -0.4632
C583       C    1.2157488655    0.4992694545    0.4906326570          0.5296
C584       C    1.1752786518    0.5274771276    0.4448851081          0.5278
H585       H    1.1190466907    0.5243047042    0.4586030373          0.5336
H586       H    1.1239174283    0.4749010764    0.5401844675          -0.461
H587       H    1.1782389078    0.4732741151    0.5353757646          0.5343
H588       H    1.1580765534    0.5299894934    0.4270624976          0.5214
H589       H    1.1939548445    0.5144784806    0.4348456494          0.5138
H590       H    1.1835929115    0.5503491140    0.4502957117         -0.4543
C591       C    1.2390342887    0.4834287218    0.5125205194          0.5288
C592       C    1.2675435324    0.5051264450    0.5130978631         -0.4569
N593       N    1.2606040895    0.5281792626    0.4897737711         -0.4523
N594       N    1.2274300704    0.5308670123    0.4899527813         -0.4496
N595       N    1.2988596339    0.4931334082    0.5042880243            0.53
H596       H    1.2222354295    0.5399473680    0.4692132164         -0.4533
H597       H    1.2686096497    0.5487089759    0.4971396654         -0.4352
H598       H    1.2449040950    0.4606101818    0.5044274112          0.5094
H599       H    1.2688753214    0.5165594364    0.5354136492         -0.4386
H600       H    1.2298330004    0.4815726165    0.5355970299         -0.4612
H601       H    1.2207275416    0.4892348848    0.4682780328          0.5121
N602       N    1.3234730135    0.5041648499    0.5164028598         -0.4573
N603       N    1.3539224254    0.4984187207    0.5010824083          0.5307
N604       N    1.3831731989    0.5000000000    0.5000000000          0.5306
C549       C    0.6168268011    0.5000000000    0.0000000000          -0.463
C550       C    0.6318044019    0.5143290657    0.0226963589          0.5338
C551       C    0.6622354011    0.5172019934    0.0237106477          0.5313
C552       C    0.6800548099    0.5056301450    0.0014573600          0.5318
C553       C    0.6653111290    0.4919579451   -0.0218634115          0.5342
C554       C    0.6345772182    0.4891031616   -0.0225366854         -0.4632
C555       C    0.7157488655    0.5084980372    0.0040080139          0.5296
C556       C    0.6752786518    0.5342519745    0.0511805246          0.5278
H557       H    0.6190466907    0.5239095918    0.0416264169          0.5336
H558       H    0.6239174283    0.4775371378   -0.0417153115          -0.461
H559       H    0.6782389078    0.4825200545   -0.0407451733          0.5343
H560       H    0.6580765534    0.5484865935    0.0621956527          0.5214
H561       H    0.6939548445    0.5494139401    0.0448662270          0.5138
H562       H    0.6835929115    0.5182170827    0.0683643727         -0.4543
C563       C    0.7390342887    0.4973381980   -0.0205981912          0.5288
C564       C    0.7675435324    0.4860831911   -0.0020388448         -0.4569
N565       N    0.7606040895    0.4949160984    0.0295431979         -0.4523
N566       N    0.7274300704    0.4934285504    0.0317889148         -0.4496
N567       N    0.7988596339    0.4996787866   -0.0080891320            0.53
H568       H    0.7222354295    0.5069415341    0.0499543127         -0.4533
H569       H    0.7686096497    0.4783437939    0.0437236159         -0.4352
H570       H    0.7449040950    0.5156764815   -0.0364061488          0.5094
H571       H    0.7688753214    0.4610346148   -0.0031686334         -0.4386
H572       H    0.7298330004    0.4782150747   -0.0336471995         -0.4612
H573       H    0.7207275416    0.5328872779    0.0063716453          0.5121
N574       N    0.8234730135    0.4836892216   -0.0045120164         -0.4573
N575       N    0.8539224254    0.4998435721   -0.0019098644          0.5307
N576       N    0.8831731989    0.5000000000    0.0000000000          0.5306
C521       C    1.1168268011    0.5000000000    0.0000000000          -0.463
C522       C    1.1318044019    0.5267727228   -0.0019152408          0.5338
C523       C    1.1622354011    0.5290232901   -0.0039688820          0.5313
C524       C    1.1800548099    0.5039429634   -0.0042749820          0.5318
C525       C    1.1653111290    0.4769299488   -0.0032335969          0.5342
C526       C    1.1345772182    0.4749885591   -0.0010349399         -0.4632
C527       C    1.2157488655    0.5075454868   -0.0055987893          0.5296
C528       C    1.1752786518    0.5612886362   -0.0060288415          0.5278
H529       H    1.1190466907    0.5479833591   -0.0014228175          0.5336
H530       H    1.1239174283    0.4526213523    0.0001055275          -0.461
H531       H    1.1782389078    0.4558292318   -0.0038289528          0.5343
H532       H    1.1580765534    0.5777195493   -0.0133761211          0.5214
H533       H    1.1939548445    0.5628811935   -0.0223756857          0.5138
H534       H    1.1835929115    0.5688656324    0.0162195634         -0.4543
C535       C    1.2390342887    0.4805855510   -0.0073790133          0.5288
C536       C    1.2675435324    0.4916318974    0.0113052782         -0.4569
N537       N    1.2606040895    0.5236424991    0.0184303781         -0.4523
N538       N    1.2274300704    0.5249197932    0.0208019942         -0.4496
N539       N    1.2988596339    0.4927176226   -0.0035361298            0.53
H540       H    1.2222354295    0.5473130784    0.0174668504         -0.4533
H541       H    1.2686096497    0.5283181777    0.0397344518         -0.4352
H542       H    1.2449040950    0.4753089740   -0.0310082728          0.5094
H543       H    1.2688753214    0.4788092780    0.0328526222         -0.4386
H544       H    1.2298330004    0.4600536273    0.0033172745         -0.4612
H545       H    1.2207275416    0.5211444554   -0.0259823577          0.5121
N546       N    1.3234730135    0.4883214386    0.0122478973         -0.4573
N547       N    1.3539224254    0.4982425624   -0.0007638488          0.5307
N548       N    1.3831731989    0.5000000000    0.0000000000          0.5306
C493       C    1.0000000000    0.5000000000   -0.3831731989          -0.463
C494       C    0.9733783649    0.5034256933   -0.3681955981          0.5338
C495       C    0.9712474931    0.5056032793   -0.3377645989          0.5313
C496       C    0.9963050155    0.5044910490   -0.3199451901          0.5318
C497       C    1.0232159589    0.5019242297   -0.3346888710          0.5342
C498       C    1.0250299495    0.4996193382   -0.3654227818         -0.4632
C499       C    0.9927830908    0.5060163970   -0.2842511345          0.5296
C500       C    0.9391501997    0.5094839689   -0.3247213482          0.5278
H501       H    0.9521738111    0.5041331371   -0.3809533093          0.5336
H502       H    1.0472969135    0.4972162318   -0.3760825717          -0.461
H503       H    1.0443165881    0.5013257679   -0.3217610922          0.5343
H504       H    0.9231609195    0.5177483709   -0.3419234466          0.5214
H505       H    0.9384843090    0.5258947015   -0.3060451555          0.5138
H506       H    0.9303275741    0.4876994865   -0.3164070885         -0.4543
C507       C    1.0198005516    0.5062696752   -0.2609657113          0.5288
C508       C    1.0077156104    0.4882397358   -0.2324564676         -0.4569
N509       N    0.9753534042    0.4829356536   -0.2393959105         -0.4523
N510       N    0.9739440807    0.4806400382   -0.2725699296         -0.4496
N511       N    1.0074706358    0.5031187875   -0.2011403661            0.53
H512       H    0.9517751493    0.4852357854   -0.2777645705         -0.4533
H513       H    0.9694808413    0.4619299750   -0.2313903503         -0.4352
H514       H    1.0264044993    0.5295628511   -0.2550959050          0.5094
H515       H    1.0192996093    0.4660019624   -0.2311246786         -0.4386
H516       H    1.0396949578    0.4944297824   -0.2701669996         -0.4612
H517       H    0.9803581935    0.5271361447   -0.2792724584          0.5121
N518       N    1.0109674869    0.4871114774   -0.1765269865         -0.4573
N519       N    1.0017978090    0.5006632758   -0.1460775746          0.5307
N520       N    1.0000000000    0.5000000000   -0.1168268011          0.5306
C465       C    1.0000000000    0.5000000000    0.1168268011          -0.463
C466       C    0.9962720291    0.4734190093    0.1318044019          0.5338
C467       C    0.9940703708    0.4713130188    0.1622354011          0.5313
C468       C    0.9954672552    0.4963562854    0.1800548099          0.5318
C469       C    0.9983396950    0.5232363249    0.1653111290          0.5342
C470       C    1.0006650498    0.5250240082    0.1345772182         -0.4632
C471       C    0.9939019864    0.4928519204    0.2157488655          0.5296
C472       C    0.9898252138    0.4392618935    0.1752786518          0.5278
H473       H    0.9953236860    0.4522238632    0.1190466907          0.5336
H474       H    1.0033210181    0.5472622284    0.1239174283          -0.461
H475       H    0.9991778822    0.5443287916    0.1782389078          0.5343
H476       H    0.9813796608    0.4233675530    0.1580765534          0.5214
H477       H    0.9734079742    0.4387825191    0.1939548445          0.5138
H478       H    1.0115080392    0.4301923028    0.1835929115         -0.4543
C479       C    0.9939557211    0.5198705149    0.2390342887          0.5288
C480       C    1.0118471766    0.5075814816    0.2675435324         -0.4569
N481       N    1.0167831881    0.4751610951    0.2606040895         -0.4523
N482       N    1.0190626413    0.4737257777    0.2274300704         -0.4496
N483       N    0.9969663019    0.5075055920    0.2988596339            0.53
H484       H    1.0142152877    0.4516104986    0.2222354295         -0.4533
H485       H    1.0377207813    0.4690502260    0.2686096497         -0.4352
H486       H    0.9707390890    0.5267387141    0.2449040950          0.5094
H487       H    1.0342151421    0.5189120473    0.2688753214         -0.4386
H488       H    1.0060209075    0.5396291014    0.2298330004         -0.4612
H489       H    0.9726424195    0.4806678066    0.2207275416          0.5121
N490       N    1.0130123129    0.5108203279    0.3234730135         -0.4573
N491       N    0.9993571953    0.5018052296    0.3539224254          0.5307
N492       N    1.0000000000    0.5000000000    0.3831731989          0.5306
C437       C    1.0000000000   -0.1168268011    0.5000000000          -0.463
C438       C    1.0266216351   -0.1318044019    0.4965743067          0.5338
C439       C    1.0287525069   -0.1622354011    0.4943967207          0.5313
C440       C    1.0036949845   -0.1800548099    0.4955089510          0.5318
C441       C    0.9767840411   -0.1653111290    0.4980757703          0.5342
C442       C    0.9749700505   -0.1345772182    0.5003806618         -0.4632
C443       C    1.0072169092   -0.2157488655    0.4939836030          0.5296
C444       C    1.0608498003   -0.1752786518    0.4905160311          0.5278
H445       H    1.0478261889   -0.1190466907    0.4958668629          0.5336
H446       H    0.9527030865   -0.1239174283    0.5027837682          -0.461
H447       H    0.9556834119   -0.1782389078    0.4986742321          0.5343
H448       H    1.0768390805   -0.1580765534    0.4822516291          0.5214
H449       H    1.0615156910   -0.1939548445    0.4741052985          0.5138
H450       H    1.0696724259   -0.1835929115    0.5123005135         -0.4543
C451       C    0.9801994484   -0.2390342887    0.4937303248          0.5288
C452       C    0.9922843896   -0.2675435324    0.5117602642         -0.4569
N453       N    1.0246465958   -0.2606040895    0.5170643464         -0.4523
N454       N    1.0260559193   -0.2274300704    0.5193599618         -0.4496
N455       N    0.9925293642   -0.2988596339    0.4968812125            0.53
H456       H    1.0482248507   -0.2222354295    0.5147642146         -0.4533
H457       H    1.0305191587   -0.2686096497    0.5380700250         -0.4352
H458       H    0.9735955007   -0.2449040950    0.4704371489          0.5094
H459       H    0.9807003907   -0.2688753214    0.5339980376         -0.4386
H460       H    0.9603050422   -0.2298330004    0.5055702176         -0.4612
H461       H    1.0196418065   -0.2207275416    0.4728638553          0.5121
N462       N    0.9890325131   -0.3234730135    0.5128885226         -0.4573
N463       N    0.9982021910   -0.3539224254    0.4993367242          0.5307
N464       N    1.0000000000   -0.3831731989    0.5000000000          0.5306
C409       C    1.0000000000    0.1168268011    0.5000000000          -0.463
C410       C    0.9888457318    0.1318044019    0.5244137079          0.5338
C411       C    0.9861348712    0.1622354011    0.5258042942          0.5313
C412       C    0.9946163010    0.1800548099    0.5021995947          0.5318
C413       C    1.0050358637    0.1653111290    0.4772552536          0.5342
C414       C    1.0077744990    0.1345772182    0.4762050333         -0.4632
C415       C    0.9921165687    0.2157488655    0.5051119785          0.5296
C416       C    0.9729247665    0.1752786518    0.5553134304          0.5278
H417       H    0.9818917318    0.1190466907    0.5444580452          0.5336
H418       H    1.0166626928    0.1239174283    0.4556479757          -0.461
H419       H    1.0118549980    0.1782389078    0.4572779136          0.5343
H420       H    0.9602967880    0.1580765534    0.5681388576          0.5214
H421       H    0.9570526893    0.1939548445    0.5510905501          0.5138
H422       H    0.9911202747    0.1835929115    0.5701904555         -0.4543
C423       C    0.9998740173    0.2390342887    0.4792309173          0.5288
C424       C    1.0135174150    0.2675435324    0.4961123337         -0.4569
N425       N    1.0090018257    0.2606040895    0.5285939458         -0.4523
N426       N    1.0107772372    0.2274300704    0.5306197683         -0.4496
N427       N    0.9992329677    0.2988596339    0.4919409122            0.53
H428       H    0.9998237404    0.2222354295    0.5504339884         -0.4533
H429       H    1.0273269086    0.2686096497    0.5404225917         -0.4352
H430       H    0.9795805519    0.2449040950    0.4660263943          0.5094
H431       H    1.0381879140    0.2688753214    0.4916319236         -0.4386
H432       H    1.0170734068    0.2298330004    0.4637340962         -0.4612
H433       H    0.9682649918    0.2207275416    0.5107266100          0.5121
N434       N    1.0155579058    0.3234730135    0.4933403190         -0.4573
N435       N    0.9998987617    0.3539224254    0.4980864163          0.5307
N436       N    1.0000000000    0.3831731989    0.5000000000          0.5306
C381       C    0.6168268011   -0.0000000000    0.5000000000          -0.463
C382       C    0.6318044019   -0.0171183552    0.4793261337          0.5338
C383       C    0.6622354011   -0.0200975421    0.4786882147          0.5313
C384       C    0.6800548099   -0.0057704454    0.4992758514          0.5318
C385       C    0.6653111290    0.0107764410    0.5206531288          0.5342
C386       C    0.6345772182    0.0136939501    0.5209551666         -0.4632
C387       C    0.7157488655   -0.0089414422    0.4971135795          0.5296
C388       C    0.6752786518   -0.0405258705    0.4536286977          0.5278
H389       H    0.6190466907   -0.0290448388    0.4617792660          0.5336
H390       H    0.6239174283    0.0276214150    0.5384942181          -0.461
H391       H    0.6782389078    0.0225552775    0.5381703694          0.5343
H392       H    0.6580765534   -0.0560542253    0.4445277296          0.5214
H393       H    0.6939548445   -0.0547540831    0.4618331795          0.5138
H394       H    0.6835929115   -0.0268242810    0.4345323935         -0.4543
C395       C    0.7390342887    0.0052784415    0.5200875266          0.5288
C396       C    0.7675435324    0.0140633272    0.5002393453         -0.4569
N397       N    0.7606040895    0.0012576208    0.4700489568         -0.4523
N398       N    0.7274300704    0.0024452440    0.4676311904         -0.4496
N399       N    0.7988596339    0.0013547614    0.5079813443            0.53
H400       H    0.7222354295   -0.0132833494    0.4513464196         -0.4533
H401       H    0.7686096497    0.0158769262    0.4538624983         -0.4352
H402       H    0.7449040950   -0.0108838111    0.5381143333          0.5094
H403       H    0.7688753214    0.0390502667    0.4981511765         -0.4386
H404       H    0.7298330004    0.0259155614    0.5305794159         -0.4612
H405       H    0.7207275416   -0.0334325296    0.4978936113          0.5121
N406       N    0.8234730135    0.0167543804    0.5023854815         -0.4573
N407       N    0.8539224254    0.0003997873    0.5018740923          0.5307
N408       N    0.8831731989   -0.0000000000    0.5000000000          0.5306
C353       C    1.3831731989   -0.0000000000    0.5000000000          -0.463
C354       C    1.3681955981    0.0230039792    0.4861701854          0.5338
C355       C    1.3377645989    0.0260261735    0.4865559796          0.5313
C356       C    1.3199451901    0.0056841951    0.5012297794          0.5318
C357       C    1.3346888710   -0.0170138214    0.5159126770          0.5342
C358       C    1.3654227818   -0.0198664768    0.5152304424         -0.4632
C359       C    1.2842511345    0.0093926954    0.5002410093          0.5296
C360       C    1.3247213482    0.0536068494    0.4696858193          0.5278
H361       H    1.3809533093    0.0400730431    0.4735693665          0.5336
H362       H    1.3760825717   -0.0388207765    0.5271605358          -0.461
H363       H    1.3217610922   -0.0339337658    0.5285344910          0.5343
H364       H    1.3419234466    0.0712741752    0.4662473570          0.5214
H365       H    1.3060451555    0.0643105731    0.4821431808          0.5138
H366       H    1.3164070885    0.0470107497    0.4471271434         -0.4543
C367       C    1.2609657113   -0.0116392258    0.5172017177          0.5288
C368       C    1.2324564676   -0.0133474011    0.4955636343         -0.4569
N369       N    1.2393959105    0.0087426579    0.4713257514         -0.4523
N370       N    1.2725699296    0.0084237151    0.4686509956         -0.4496
N371       N    1.2011403661   -0.0039240702    0.5070808833            0.53
H372       H    1.2777645705    0.0286614803    0.4585013518         -0.4533
H373       H    1.2313903503    0.0003160868    0.4512081365         -0.4352
H374       H    1.2550959050   -0.0023670595    0.5395671173          0.5094
H375       H    1.2311246786   -0.0362290901    0.4853100540         -0.4386
H376       H    1.2701669996   -0.0345875279    0.5202588232         -0.4612
H377       H    1.2792724584    0.0322402368    0.5090960455          0.5121
N378       N    1.1765269865   -0.0165977491    0.4966962886         -0.4573
N379       N    1.1460775746   -0.0009984656    0.5016355789          0.5307
N380       N    1.1168268011   -0.0000000000    0.5000000000          0.5306
C325       C   -0.0000000000   -0.1168268011    0.0000000000          -0.463
C326       C    0.0240908956   -0.1318044019   -0.0118353529          0.5338
C327       C    0.0254048188   -0.1622354011   -0.0145841893          0.5313
C328       C    0.0020475653   -0.1800548099   -0.0054433361          0.5318
C329       C   -0.0225943832   -0.1653111290    0.0056724999          0.5342
C330       C   -0.0235672948   -0.1345772182    0.0084395434         -0.4632
C331       C    0.0048886139   -0.2157488655   -0.0080238561          0.5296
C332       C    0.0545314106   -0.1752786518   -0.0286176364          0.5278
H333       H    0.0439320776   -0.1190466907   -0.0193494115          0.5336
H334       H   -0.0438666870   -0.1239174283    0.0179014291          -0.461
H335       H   -0.0423723810   -0.1782389078    0.0130498648          0.5343
H336       H    0.0669972158   -0.1580765534   -0.0416007456          0.5214
H337       H    0.0498645426   -0.1939548445   -0.0443648869          0.5138
H338       H    0.0699134594   -0.1835929115   -0.0108470156         -0.4543
C339       C   -0.0207644317   -0.2390342887    0.0004572165          0.5288
C340       C   -0.0035065948   -0.2675435324    0.0136212426         -0.4569
N341       N    0.0288354235   -0.2606040895    0.0081954225         -0.4523
N342       N    0.0309102970   -0.2274300704    0.0099132535         -0.4496
N343       N   -0.0080774470   -0.2988596339   -0.0005404487            0.53
H344       H    0.0504091554   -0.2222354295   -0.0015922638         -0.4533
H345       H    0.0411739333   -0.2686096497    0.0261811587         -0.4352
H346       H   -0.0345335438   -0.2449040950   -0.0194574946          0.5094
H347       H   -0.0072925459   -0.2688753214    0.0384078150         -0.4386
H348       H   -0.0357722226   -0.2298330004    0.0180849410         -0.4612
H349       H    0.0098313328   -0.2207275416   -0.0320236757          0.5121
N350       N   -0.0062202241   -0.3234730135    0.0157387609         -0.4573
N351       N   -0.0019156718   -0.3539224254   -0.0000474692          0.5307
N352       N   -0.0000000000   -0.3831731989    0.0000000000          0.5306
C297       C   -0.0000000000    0.3831731989    0.0000000000          -0.463
C298       C   -0.0170313706    0.3681955981   -0.0207455838          0.5338
C299       C   -0.0200078519    0.3377645989   -0.0213960103          0.5313
C300       C   -0.0057673530    0.3199451901   -0.0007483790          0.5318
C301       C    0.0106895994    0.3346888710    0.0206982094          0.5342
C302       C    0.0136058142    0.3654227818    0.0210124986         -0.4632
C303       C   -0.0089292399    0.2842511345   -0.0029239506          0.5296
C304       C   -0.0403307461    0.3247213482   -0.0465411084          0.5278
H305       H   -0.0288840493    0.3809533093   -0.0383423899          0.5336
H306       H    0.0274594894    0.3760825717    0.0386098930          -0.461
H307       H    0.0223947568    0.3217610922    0.0382647685          0.5343
H308       H   -0.0558207384    0.3419234466   -0.0557072179          0.5214
H309       H   -0.0545932933    0.3060451555   -0.0383964598          0.5138
H310       H   -0.0265490699    0.3164070885   -0.0655796954         -0.4543
C311       C    0.0051940241    0.2609657113    0.0201095197          0.5288
C312       C    0.0140621978    0.2324564676    0.0002984114         -0.4569
N313       N    0.0013834090    0.2393959105   -0.0299454968         -0.4523
N314       N    0.0025811767    0.2725699296   -0.0323582537         -0.4496
N315       N    0.0013212265    0.2011403661    0.0079869641            0.53
H316       H   -0.0130788793    0.2777645705   -0.0487089434         -0.4533
H317       H    0.0160705711    0.2313903503   -0.0460704091         -0.4352
H318       H   -0.0110438015    0.2550959050    0.0380682833          0.5094
H319       H    0.0390576877    0.2311246786   -0.0016847898         -0.4386
H320       H    0.0257868944    0.2701669996    0.0306879957         -0.4612
H321       H   -0.0334233875    0.2792724584   -0.0022467921          0.5121
N322       N    0.0167442132    0.1765269865    0.0024558315         -0.4573
N323       N    0.0003919123    0.1460775746    0.0018757549          0.5307
N324       N   -0.0000000000    0.1168268011    0.0000000000          0.5306
C269       C   -0.3831731989   -0.0000000000    0.0000000000          -0.463
C270       C   -0.3681955981    0.0260846235   -0.0063276574          0.5338
C271       C   -0.3377645989    0.0279635473   -0.0087260195          0.5313
C272       C   -0.3199451901    0.0031795970   -0.0048695579          0.5318
C273       C   -0.3346888710   -0.0232868780    0.0006361790          0.5342
C274       C   -0.3654227818   -0.0248368597    0.0031262880         -0.4632
C275       C   -0.2842511345    0.0065127716   -0.0067723422          0.5296
C276       C   -0.3247213482    0.0594407783   -0.0161070710          0.5278
H277       H   -0.3809533093    0.0470833349   -0.0093587788          0.5336
H278       H   -0.3760825717   -0.0467054001    0.0079594597          -0.461
H279       H   -0.3217610922   -0.0441942576    0.0035475678          0.5343
H280       H   -0.3419234466    0.0744260960   -0.0260769094          0.5214
H281       H   -0.3060451555    0.0583009823   -0.0324917108          0.5138
H282       H   -0.3164070885    0.0706016955    0.0045771336         -0.4543
C283       C   -0.2609657113   -0.0203691829   -0.0040579620          0.5288
C284       C   -0.2324564676   -0.0063778645    0.0125362395         -0.4569
N285       N   -0.2393959105    0.0263710333    0.0142553569         -0.4523
N286       N   -0.2725699296    0.0280238634    0.0163823726         -0.4496
N287       N   -0.2011403661   -0.0077678759   -0.0022797673            0.53
H288       H   -0.2777645705    0.0495542434    0.0093805766         -0.4533
H289       H   -0.2313903503    0.0345142188    0.0344893397         -0.4352
H290       H   -0.2550959050   -0.0294904663   -0.0264853194          0.5094
H291       H   -0.2311246786   -0.0154504549    0.0359113481         -0.4386
H292       H   -0.2701669996   -0.0388434840    0.0098944808         -0.4612
H293       H   -0.2792724584    0.0165439205   -0.0291285016          0.5121
N294       N   -0.1765269865   -0.0094862179    0.0140146871         -0.4573
N295       N   -0.1460775746   -0.0018597599   -0.0004618930          0.5307
N296       N   -0.1168268011   -0.0000000000    0.0000000000          0.5306
C241       C    0.3831731989   -0.0000000000    0.0000000000          -0.463
C242       C    0.3681955981    0.0264992808   -0.0042702401          0.5338
C243       C    0.3377645989    0.0291605297   -0.0027869163          0.5313
C244       C    0.3199451901    0.0048176022    0.0032577815          0.5318
C245       C    0.3346888710   -0.0217153478    0.0084336872          0.5342
C246       C    0.3654227818   -0.0241088727    0.0067383628         -0.4632
C247       C    0.2842511345    0.0086276091    0.0037209103          0.5296
C248       C    0.3247213482    0.0610394625   -0.0081748316          0.5278
H249       H    0.3809533093    0.0470327780   -0.0096096285          0.5336
H250       H    0.3760825717   -0.0461423197    0.0107533124          -0.461
H251       H    0.3217610922   -0.0421182647    0.0138480835          0.5343
H252       H    0.3419234466    0.0787167390   -0.0047878978          0.5214
H253       H    0.3060451555    0.0663352585    0.0073721971          0.5138
H254       H    0.3164070885    0.0633170194   -0.0315674613         -0.4543
C255       C    0.2609657113   -0.0172071494    0.0116311942          0.5288
C256       C    0.2324564676   -0.0107358867   -0.0090870894         -0.4569
N257       N    0.2393959105    0.0187904751   -0.0233573253         -0.4523
N258       N    0.2725699296    0.0194903702   -0.0259585154         -0.4496
N259       N    0.2011403661   -0.0062783843    0.0051106873            0.53
H260       H    0.2777645705    0.0420520755   -0.0278431535         -0.4533
H261       H    0.2313903503    0.0184602817   -0.0451659590         -0.4352
H262       H    0.2550959050   -0.0169290897    0.0358408380          0.5094
H263       H    0.2311246786   -0.0281545775   -0.0271230759         -0.4386
H264       H    0.2701669996   -0.0396436988    0.0059240311         -0.4612
H265       H    0.2792724584    0.0265353346    0.0204461959          0.5121
N266       N    0.1765269865   -0.0141742563   -0.0092460933         -0.4573
N267       N    0.1460775746   -0.0015356577    0.0011462143          0.5307
N268       N    0.1168268011   -0.0000000000    0.0000000000          0.5306
C213       C   -0.0000000000    0.0000000000   -0.3831731989          -0.463
C214       C   -0.0036375294   -0.0265935182   -0.3681955981          0.5338
C215       C   -0.0058320110   -0.0287069859   -0.3377645989          0.5313
C216       C   -0.0045203238   -0.0036591125   -0.3199451901          0.5318
C217       C   -0.0017393379    0.0232305427   -0.3346888710          0.5342
C218       C    0.0005799224    0.0250261257   -0.3654227818         -0.4632
C219       C   -0.0060736628   -0.0071687818   -0.2842511345          0.5296
C220       C   -0.0099681160   -0.0607723664   -0.3247213482          0.5278
H221       H   -0.0045137680   -0.0477917677   -0.3809533093          0.5336
H222       H    0.0031602281    0.0472732520   -0.3760825717          -0.461
H223       H   -0.0009729052    0.0443257385   -0.3217610922          0.5343
H224       H   -0.0183595526   -0.0766953440   -0.3419234466          0.5214
H225       H   -0.0263836299   -0.0613075842   -0.3060451555          0.5138
H226       H    0.0117454358   -0.0697681467   -0.3164070885         -0.4543
C227       C   -0.0061118370    0.0198498392   -0.2609657113          0.5288
C228       C    0.0118213183    0.0076217380   -0.2324564676         -0.4569
N229       N    0.0168675850   -0.0247816702   -0.2393959105         -0.4523
N230       N    0.0191519075   -0.0262092254   -0.2725699296         -0.4496
N231       N   -0.0030592122    0.0074952289   -0.2011403661            0.53
H232       H    0.0143798109   -0.0483408657   -0.2777645705         -0.4533
H233       H    0.0378258442   -0.0308212810   -0.2313903503         -0.4352
H234       H   -0.0293516982    0.0266390232   -0.2550959050          0.5094
H235       H    0.0341506115    0.0190283267   -0.2311246786         -0.4386
H236       H    0.0058860672    0.0396493533   -0.2701669996         -0.4612
H237       H   -0.0272916603   -0.0194251431   -0.2792724584          0.5121
N238       N    0.0129754304    0.0108645290   -0.1765269865         -0.4573
N239       N   -0.0006489418    0.0018030326   -0.1460775746          0.5307
N240       N   -0.0000000000    0.0000000000   -0.1168268011          0.5306
C185       C   -0.0000000000    0.0000000000    0.3831731989          -0.463
C186       C   -0.0232400905    0.0134292601    0.3681955981          0.5338
C187       C   -0.0262551485    0.0129911728    0.3377645989          0.5313
C188       C   -0.0056620398   -0.0013280577    0.3199451901          0.5318
C189       C    0.0172869112   -0.0156155727    0.3346888710          0.5342
C190       C    0.0201273207   -0.0148840262    0.3654227818         -0.4632
C191       C   -0.0093871113   -0.0004036753    0.2842511345          0.5296
C192       C   -0.0541239144    0.0293810439    0.3247213482          0.5278
H193       H   -0.0405248671    0.0257325146    0.3809533093          0.5336
H194       H    0.0392854320   -0.0264839994    0.3760825717          -0.461
H195       H    0.0344229544   -0.0279424023    0.3217610922          0.5343
H196       H   -0.0718481511    0.0325129534    0.3419234466          0.5214
H197       H   -0.0646102433    0.0167401396    0.3060451555          0.5138
H198       H   -0.0479195702    0.0520505941    0.3164070885         -0.4543
C199       C    0.0119354510   -0.0169975198    0.2609657113          0.5288
C200       C    0.0132685508    0.0046669064    0.2324564676         -0.4569
N201       N   -0.0092380471    0.0285185043    0.2393959105         -0.4523
N202       N   -0.0089654849    0.0311983835    0.2725699296         -0.4496
N203       N    0.0040461378   -0.0070118474    0.2011403661            0.53
H204       H   -0.0293760277    0.0409959419    0.2777645705         -0.4533
H205       H   -0.0011612216    0.0487790674    0.2313903503         -0.4352
H206       H    0.0030520938   -0.0395201780    0.2550959050          0.5094
H207       H    0.0359691921    0.0153153093    0.2311246786         -0.4386
H208       H    0.0349332656   -0.0196566516    0.2701669996         -0.4612
H209       H   -0.0320778359   -0.0096531524    0.2792724584          0.5121
N210       N    0.0165380312    0.0035907252    0.1765269865         -0.4573
N211       N    0.0010266476   -0.0016180379    0.1460775746          0.5307
N212       N   -0.0000000000    0.0000000000    0.1168268011          0.5306
loop_
_geom_bond_atom_site_label_1
_geom_bond_atom_site_label_2
_geom_bond_distance
_geom_bond_site_symmetry_2
_ccdc_geom_bond_type
Zn1          O5 1.942       .   S
Zn1          O6 1.922       .   S
Zn1         O10 1.922       .   S
Zn1         O17 1.922       .   S
Zn2          O5 1.942       .   S
Zn2          O7 1.922       .   S
Zn2          O9 1.922       .   S
Zn2         O13 1.922       .   S
Zn3          O5 1.942       .   S
Zn3          O8 1.922       .   S
Zn3         O11 1.922       .   S
Zn3         O14 1.922       .   S
Zn4          O5 1.942       .   S
Zn4         O12 1.922       .   S
Zn4         O15 1.922       .   S
Zn4         O16 1.922       .   S
O6          C18 1.304       .   A
O7          C19 1.304       .   A
O8          C20 1.304       .   A
O9          C18 1.304       .   A
O10         C20 1.304       .   A
O11         C19 1.304       .   A
O12         C21 1.304       .   A
O13         C22 1.304       .   A
O14         C21 1.304       .   A
O15         C22 1.304       .   A
O16         C23 1.304       .   A
O17         C23 1.304       .   A
C18        N212 1.540       .   S
C19        N268 1.540       .   S
C20        C325 1.540       .   S
C21        N240 1.540       .   S
C22        N324 1.540       .   S
C23        N296 1.540       .   S
Zn24        O28 1.942       .   S
Zn24        O29 1.922       .   S
Zn24        O33 1.922       .   S
Zn24        O40 1.922       .   S
Zn25        O28 1.942       .   S
Zn25        O30 1.922       .   S
Zn25        O32 1.922       .   S
Zn25        O36 1.922       .   S
Zn26        O28 1.942       .   S
Zn26        O31 1.922       .   S
Zn26        O34 1.922       .   S
Zn26        O37 1.922       .   S
Zn27        O28 1.942       .   S
Zn27        O35 1.922       .   S
Zn27        O38 1.922       .   S
Zn27        O39 1.922       .   S
O29         C41 1.304       .   A
O30         C42 1.304       .   A
O31         C43 1.304       .   A
O32         C41 1.304       .   A
O33         C43 1.304       .   A
O34         C42 1.304       .   A
O35         C44 1.304       .   A
O36         C45 1.304       .   A
O37         C44 1.304       .   A
O38         C45 1.304       .   A
O39         C46 1.304       .   A
O40         C46 1.304       .   A
C41        C185 1.540   1_655   S
C42        N380 1.540       .   S
C43        C409 1.540       .   S
C44        C213 1.540   1_656   S
C45        C437 1.540       .   S
C46        N408 1.540       .   S
Zn47        O51 1.942       .   S
Zn47        O52 1.922       .   S
Zn47        O56 1.922       .   S
Zn47        O63 1.922       .   S
Zn48        O51 1.942       .   S
Zn48        O53 1.922       .   S
Zn48        O55 1.922       .   S
Zn48        O59 1.922       .   S
Zn49        O51 1.942       .   S
Zn49        O54 1.922       .   S
Zn49        O57 1.922       .   S
Zn49        O60 1.922       .   S
Zn50        O51 1.942       .   S
Zn50        O58 1.922       .   S
Zn50        O61 1.922       .   S
Zn50        O62 1.922       .   S
O52         C64 1.304       .   A
O53         C65 1.304       .   A
O54         C66 1.304       .   A
O55         C64 1.304       .   A
O56         C66 1.304       .   A
O57         C65 1.304       .   A
O58         C67 1.304       .   A
O59         C68 1.304       .   A
O60         C67 1.304       .   A
O61         C68 1.304       .   A
O62         C69 1.304       .   A
O63         C69 1.304       .   A
C64        C297 1.540   1_655   S
C65        C465 1.540       .   S
C66        C521 1.540       .   S
C67        N352 1.540   1_665   S
C68        N576 1.540       .   S
C69        N520 1.540       .   S
Zn70        O74 1.942       .   S
Zn70        O75 1.922       .   S
Zn70        O79 1.922       .   S
Zn70        O86 1.922       .   S
Zn71        O74 1.942       .   S
Zn71        O76 1.922       .   S
Zn71        O78 1.922       .   S
Zn71        O82 1.922       .   S
Zn72        O74 1.942       .   S
Zn72        O77 1.922       .   S
Zn72        O80 1.922       .   S
Zn72        O83 1.922       .   S
Zn73        O74 1.942       .   S
Zn73        O81 1.922       .   S
Zn73        O84 1.922       .   S
Zn73        O85 1.922       .   S
O75         C87 1.304       .   A
O76         C88 1.304       .   A
O77         C89 1.304       .   A
O78         C87 1.304       .   A
O79         C89 1.304       .   A
O80         C88 1.304       .   A
O81         C90 1.304       .   A
O82         C91 1.304       .   A
O83         C90 1.304       .   A
O84         C91 1.304       .   A
O85         C92 1.304       .   A
O86         C92 1.304       .   A
C87        N492 1.540       .   S
C88        C605 1.540       .   S
C89        N436 1.540       .   S
C90        C493 1.540   1_556   S
C91        N464 1.540   1_565   S
C92        C577 1.540       .   S
Zn93        O97 1.942       .   S
Zn93        O98 1.922       .   S
Zn93       O102 1.922       .   S
Zn93       O109 1.922       .   S
Zn94        O97 1.942       .   S
Zn94        O99 1.922       .   S
Zn94       O101 1.922       .   S
Zn94       O105 1.922       .   S
Zn95        O97 1.942       .   S
Zn95       O100 1.922       .   S
Zn95       O103 1.922       .   S
Zn95       O106 1.922       .   S
Zn96        O97 1.942       .   S
Zn96       O104 1.922       .   S
Zn96       O107 1.922       .   S
Zn96       O108 1.922       .   S
O98        C110 1.304       .   A
O99        C111 1.304       .   A
O100       C112 1.304       .   A
O101       C110 1.304       .   A
O102       C112 1.304       .   A
O103       C111 1.304       .   A
O104       C113 1.304       .   A
O105       C114 1.304       .   A
O106       C113 1.304       .   A
O107       C114 1.304       .   A
O108       C115 1.304       .   A
O109       C115 1.304       .   A
C110       C241 1.540   1_565   S
C111       C633 1.540       .   S
C112       C717 1.540       .   S
C113       C269 1.540   1_665   S
C114       N716 1.540       .   S
C115       N688 1.540       .   S
Zn116      O120 1.942       .   S
Zn116      O121 1.922       .   S
Zn116      O125 1.922       .   S
Zn116      O132 1.922       .   S
Zn117      O120 1.942       .   S
Zn117      O122 1.922       .   S
Zn117      O124 1.922       .   S
Zn117      O128 1.922       .   S
Zn118      O120 1.942       .   S
Zn118      O123 1.922       .   S
Zn118      O126 1.922       .   S
Zn118      O129 1.922       .   S
Zn119      O120 1.942       .   S
Zn119      O127 1.922       .   S
Zn119      O130 1.922       .   S
Zn119      O131 1.922       .   S
O121       C133 1.304       .   A
O122       C134 1.304       .   A
O123       C135 1.304       .   A
O124       C133 1.304       .   A
O125       C135 1.304       .   A
O126       C134 1.304       .   A
O127       C136 1.304       .   A
O128       C137 1.304       .   A
O129       C136 1.304       .   A
O130       C137 1.304       .   A
O131       C138 1.304       .   A
O132       C138 1.304       .   A
C133       C353 1.540   1_465   S
C134       N660 1.540       .   S
C135       C745 1.540       .   S
C136       C381 1.540   1_565   S
C137       C773 1.540       .   S
C138       C661 1.540   1_556   S
Zn139      O143 1.942       .   S
Zn139      O144 1.922       .   S
Zn139      O148 1.922       .   S
Zn139      O155 1.922       .   S
Zn140      O143 1.942       .   S
Zn140      O145 1.922       .   S
Zn140      O147 1.922       .   S
Zn140      O151 1.922       .   S
Zn141      O143 1.942       .   S
Zn141      O146 1.922       .   S
Zn141      O149 1.922       .   S
Zn141      O152 1.922       .   S
Zn142      O143 1.942       .   S
Zn142      O150 1.922       .   S
Zn142      O153 1.922       .   S
Zn142      O154 1.922       .   S
O144       C156 1.304       .   A
O145       C157 1.304       .   A
O146       C158 1.304       .   A
O147       C156 1.304       .   A
O148       C158 1.304       .   A
O149       C157 1.304       .   A
O150       C159 1.304       .   A
O151       C160 1.304       .   A
O152       C159 1.304       .   A
O153       C160 1.304       .   A
O154       C161 1.304       .   A
O155       C161 1.304       .   A
C156       N548 1.540   1_455   S
C157       C689 1.540   1_545   S
C158       N856 1.540       .   S
C159       C549 1.540       .   S
C160       C801 1.540       .   S
C161       N744 1.540       .   S
Zn162      O166 1.942       .   S
Zn162      O167 1.922       .   S
Zn162      O171 1.922       .   S
Zn162      O178 1.922       .   S
Zn163      O166 1.942       .   S
Zn163      O168 1.922       .   S
Zn163      O170 1.922       .   S
Zn163      O174 1.922       .   S
Zn164      O166 1.942       .   S
Zn164      O169 1.922       .   S
Zn164      O172 1.922       .   S
Zn164      O175 1.922       .   S
Zn165      O166 1.942       .   S
Zn165      O173 1.922       .   S
Zn165      O176 1.922       .   S
Zn165      O177 1.922       .   S
O167       C179 1.304       .   A
O168       C180 1.304       .   A
O169       C181 1.304       .   A
O170       C179 1.304       .   A
O171       C181 1.304       .   A
O172       C180 1.304       .   A
O173       C182 1.304       .   A
O174       C183 1.304       .   A
O175       C182 1.304       .   A
O176       C183 1.304       .   A
O177       C184 1.304       .   A
O178       C184 1.304       .   A
C179       N604 1.540   1_455   S
C180       N772 1.540   1_545   S
C181       N828 1.540       .   S
C182       N632 1.540       .   S
C183       C829 1.540   1_556   S
C184       N800 1.540       .   S
C829       C830 0.025       .   A
C829       C834 0.025       .   A
C830       C831 0.025       .   A
C830       H837 0.020       .   A
C831       C832 0.025       .   A
C831       C836 0.029       .   A
C832       C833 0.025       .   A
C832       C835 0.030       .   A
C833       C834 0.026       .   A
C833       H839 0.020       .   A
C834       H838 0.021       .   A
C835       C843 0.029       .   A
C835       N846 0.028       .   A
C835       H853 0.021       .   A
C836       H840 0.021       .   A
C836       H841 0.021       .   A
C836       H842 0.021       .   A
C843       C844 0.030       .   A
C843       H850 0.021       .   A
C843       H852 0.021       .   A
C844       N845 0.028       .   A
C844       N847 0.029       .   A
C844       H851 0.021       .   A
N845       N846 0.028       .   A
N845       H849 0.019       .   A
N846       H848 0.019       .   A
N847       N854 0.024       .   A
N854       N855 0.029       .   A
N855       N856 0.024       .   A
C801       C802 0.025       .   A
C801       C806 0.025       .   A
C802       C803 0.025       .   A
C802       H809 0.020       .   A
C803       C804 0.025       .   A
C803       C808 0.029       .   A
C804       C805 0.025       .   A
C804       C807 0.030       .   A
C805       C806 0.026       .   A
C805       H811 0.020       .   A
C806       H810 0.021       .   A
C807       C815 0.029       .   A
C807       N818 0.028       .   A
C807       H825 0.021       .   A
C808       H812 0.021       .   A
C808       H813 0.021       .   A
C808       H814 0.021       .   A
C815       C816 0.030       .   A
C815       H822 0.021       .   A
C815       H824 0.021       .   A
C816       N817 0.028       .   A
C816       N819 0.029       .   A
C816       H823 0.021       .   A
N817       N818 0.028       .   A
N817       H821 0.019       .   A
N818       H820 0.019       .   A
N819       N826 0.024       .   A
N826       N827 0.029       .   A
N827       N828 0.024       .   A
C773       C774 0.025       .   A
C773       C778 0.025       .   A
C774       C775 0.025       .   A
C774       H781 0.020       .   A
C775       C776 0.025       .   A
C775       C780 0.029       .   A
C776       C777 0.025       .   A
C776       C779 0.030       .   A
C777       C778 0.026       .   A
C777       H783 0.020       .   A
C778       H782 0.021       .   A
C779       C787 0.029       .   A
C779       N790 0.028       .   A
C779       H797 0.021       .   A
C780       H784 0.021       .   A
C780       H785 0.021       .   A
C780       H786 0.021       .   A
C787       C788 0.030       .   A
C787       H794 0.021       .   A
C787       H796 0.021       .   A
C788       N789 0.028       .   A
C788       N791 0.029       .   A
C788       H795 0.021       .   A
N789       N790 0.028       .   A
N789       H793 0.019       .   A
N790       H792 0.019       .   A
N791       N798 0.024       .   A
N798       N799 0.029       .   A
N799       N800 0.024       .   A
C745       C746 0.025       .   A
C745       C750 0.025       .   A
C746       C747 0.025       .   A
C746       H753 0.020       .   A
C747       C748 0.025       .   A
C747       C752 0.029       .   A
C748       C749 0.025       .   A
C748       C751 0.030       .   A
C749       C750 0.026       .   A
C749       H755 0.020       .   A
C750       H754 0.021       .   A
C751       C759 0.029       .   A
C751       N762 0.028       .   A
C751       H769 0.021       .   A
C752       H756 0.021       .   A
C752       H757 0.021       .   A
C752       H758 0.021       .   A
C759       C760 0.030       .   A
C759       H766 0.021       .   A
C759       H768 0.021       .   A
C760       N761 0.028       .   A
C760       N763 0.029       .   A
C760       H767 0.021       .   A
N761       N762 0.028       .   A
N761       H765 0.019       .   A
N762       H764 0.019       .   A
N763       N770 0.024       .   A
N770       N771 0.029       .   A
N771       N772 0.024       .   A
C717       C718 0.025       .   A
C717       C722 0.025       .   A
C718       C719 0.025       .   A
C718       H725 0.020       .   A
C719       C720 0.025       .   A
C719       C724 0.029       .   A
C720       C721 0.025       .   A
C720       C723 0.030       .   A
C721       C722 0.026       .   A
C721       H727 0.020       .   A
C722       H726 0.021       .   A
C723       C731 0.029       .   A
C723       N734 0.028       .   A
C723       H741 0.021       .   A
C724       H728 0.021       .   A
C724       H729 0.021       .   A
C724       H730 0.021       .   A
C731       C732 0.030       .   A
C731       H738 0.021       .   A
C731       H740 0.021       .   A
C732       N733 0.028       .   A
C732       N735 0.029       .   A
C732       H739 0.021       .   A
N733       N734 0.028       .   A
N733       H737 0.019       .   A
N734       H736 0.019       .   A
N735       N742 0.024       .   A
N742       N743 0.029       .   A
N743       N744 0.024       .   A
C689       C690 0.025       .   A
C689       C694 0.025       .   A
C690       C691 0.025       .   A
C690       H697 0.020       .   A
C691       C692 0.025       .   A
C691       C696 0.029       .   A
C692       C693 0.025       .   A
C692       C695 0.030       .   A
C693       C694 0.026       .   A
C693       H699 0.020       .   A
C694       H698 0.021       .   A
C695       C703 0.029       .   A
C695       N706 0.028       .   A
C695       H713 0.021       .   A
C696       H700 0.021       .   A
C696       H701 0.021       .   A
C696       H702 0.021       .   A
C703       C704 0.030       .   A
C703       H710 0.021       .   A
C703       H712 0.021       .   A
C704       N705 0.028       .   A
C704       N707 0.029       .   A
C704       H711 0.021       .   A
N705       N706 0.028       .   A
N705       H709 0.019       .   A
N706       H708 0.019       .   A
N707       N714 0.024       .   A
N714       N715 0.029       .   A
N715       N716 0.024       .   A
C661       C662 0.025       .   A
C661       C666 0.025       .   A
C662       C663 0.025       .   A
C662       H669 0.020       .   A
C663       C664 0.025       .   A
C663       C668 0.029       .   A
C664       C665 0.025       .   A
C664       C667 0.030       .   A
C665       C666 0.026       .   A
C665       H671 0.020       .   A
C666       H670 0.021       .   A
C667       C675 0.029       .   A
C667       N678 0.028       .   A
C667       H685 0.021       .   A
C668       H672 0.021       .   A
C668       H673 0.021       .   A
C668       H674 0.021       .   A
C675       C676 0.030       .   A
C675       H682 0.021       .   A
C675       H684 0.021       .   A
C676       N677 0.028       .   A
C676       N679 0.029       .   A
C676       H683 0.021       .   A
N677       N678 0.028       .   A
N677       H681 0.019       .   A
N678       H680 0.019       .   A
N679       N686 0.024       .   A
N686       N687 0.029       .   A
N687       N688 0.024       .   A
C633       C634 0.025       .   A
C633       C638 0.025       .   A
C634       C635 0.025       .   A
C634       H641 0.020       .   A
C635       C636 0.025       .   A
C635       C640 0.029       .   A
C636       C637 0.025       .   A
C636       C639 0.030       .   A
C637       C638 0.026       .   A
C637       H643 0.020       .   A
C638       H642 0.021       .   A
C639       C647 0.029       .   A
C639       N650 0.028       .   A
C639       H657 0.021       .   A
C640       H644 0.021       .   A
C640       H645 0.021       .   A
C640       H646 0.021       .   A
C647       C648 0.030       .   A
C647       H654 0.021       .   A
C647       H656 0.021       .   A
C648       N649 0.028       .   A
C648       N651 0.029       .   A
C648       H655 0.021       .   A
N649       N650 0.028       .   A
N649       H653 0.019       .   A
N650       H652 0.019       .   A
N651       N658 0.024       .   A
N658       N659 0.029       .   A
N659       N660 0.024       .   A
C605       C606 0.025       .   A
C605       C610 0.025       .   A
C606       C607 0.025       .   A
C606       H613 0.020       .   A
C607       C608 0.025       .   A
C607       C612 0.029       .   A
C608       C609 0.025       .   A
C608       C611 0.030       .   A
C609       C610 0.026       .   A
C609       H615 0.020       .   A
C610       H614 0.021       .   A
C611       C619 0.029       .   A
C611       N622 0.028       .   A
C611       H629 0.021       .   A
C612       H616 0.021       .   A
C612       H617 0.021       .   A
C612       H618 0.021       .   A
C619       C620 0.030       .   A
C619       H626 0.021       .   A
C619       H628 0.021       .   A
C620       N621 0.028       .   A
C620       N623 0.029       .   A
C620       H627 0.021       .   A
N621       N622 0.028       .   A
N621       H625 0.019       .   A
N622       H624 0.019       .   A
N623       N630 0.024       .   A
N630       N631 0.029       .   A
N631       N632 0.024       .   A
C577       C578 0.025       .   A
C577       C582 0.025       .   A
C578       C579 0.025       .   A
C578       H585 0.020       .   A
C579       C580 0.025       .   A
C579       C584 0.029       .   A
C580       C581 0.025       .   A
C580       C583 0.030       .   A
C581       C582 0.026       .   A
C581       H587 0.020       .   A
C582       H586 0.021       .   A
C583       C591 0.029       .   A
C583       N594 0.028       .   A
C583       H601 0.021       .   A
C584       H588 0.021       .   A
C584       H589 0.021       .   A
C584       H590 0.021       .   A
C591       C592 0.030       .   A
C591       H598 0.021       .   A
C591       H600 0.021       .   A
C592       N593 0.028       .   A
C592       N595 0.029       .   A
C592       H599 0.021       .   A
N593       N594 0.028       .   A
N593       H597 0.019       .   A
N594       H596 0.019       .   A
N595       N602 0.024       .   A
N602       N603 0.029       .   A
N603       N604 0.024       .   A
C549       C550 0.025       .   A
C549       C554 0.025       .   A
C550       C551 0.025       .   A
C550       H557 0.020       .   A
C551       C552 0.025       .   A
C551       C556 0.029       .   A
C552       C553 0.025       .   A
C552       C555 0.030       .   A
C553       C554 0.026       .   A
C553       H559 0.020       .   A
C554       H558 0.021       .   A
C555       C563 0.029       .   A
C555       N566 0.028       .   A
C555       H573 0.021       .   A
C556       H560 0.021       .   A
C556       H561 0.021       .   A
C556       H562 0.021       .   A
C563       C564 0.030       .   A
C563       H570 0.021       .   A
C563       H572 0.021       .   A
C564       N565 0.028       .   A
C564       N567 0.029       .   A
C564       H571 0.021       .   A
N565       N566 0.028       .   A
N565       H569 0.019       .   A
N566       H568 0.019       .   A
N567       N574 0.024       .   A
N574       N575 0.029       .   A
N575       N576 0.024       .   A
C521       C522 0.025       .   A
C521       C526 0.025       .   A
C522       C523 0.025       .   A
C522       H529 0.020       .   A
C523       C524 0.025       .   A
C523       C528 0.029       .   A
C524       C525 0.025       .   A
C524       C527 0.030       .   A
C525       C526 0.026       .   A
C525       H531 0.020       .   A
C526       H530 0.021       .   A
C527       C535 0.029       .   A
C527       N538 0.028       .   A
C527       H545 0.021       .   A
C528       H532 0.021       .   A
C528       H533 0.021       .   A
C528       H534 0.021       .   A
C535       C536 0.030       .   A
C535       H542 0.021       .   A
C535       H544 0.021       .   A
C536       N537 0.028       .   A
C536       N539 0.029       .   A
C536       H543 0.021       .   A
N537       N538 0.028       .   A
N537       H541 0.019       .   A
N538       H540 0.019       .   A
N539       N546 0.024       .   A
N546       N547 0.029       .   A
N547       N548 0.024       .   A
C493       C494 0.025       .   A
C493       C498 0.025       .   A
C494       C495 0.025       .   A
C494       H501 0.020       .   A
C495       C496 0.025       .   A
C495       C500 0.029       .   A
C496       C497 0.025       .   A
C496       C499 0.030       .   A
C497       C498 0.026       .   A
C497       H503 0.020       .   A
C498       H502 0.021       .   A
C499       C507 0.029       .   A
C499       N510 0.028       .   A
C499       H517 0.021       .   A
C500       H504 0.021       .   A
C500       H505 0.021       .   A
C500       H506 0.021       .   A
C507       C508 0.030       .   A
C507       H514 0.021       .   A
C507       H516 0.021       .   A
C508       N509 0.028       .   A
C508       N511 0.029       .   A
C508       H515 0.021       .   A
N509       N510 0.028       .   A
N509       H513 0.019       .   A
N510       H512 0.019       .   A
N511       N518 0.024       .   A
N518       N519 0.029       .   A
N519       N520 0.024       .   A
C465       C466 0.025       .   A
C465       C470 0.025       .   A
C466       C467 0.025       .   A
C466       H473 0.020       .   A
C467       C468 0.025       .   A
C467       C472 0.029       .   A
C468       C469 0.025       .   A
C468       C471 0.030       .   A
C469       C470 0.026       .   A
C469       H475 0.020       .   A
C470       H474 0.021       .   A
C471       C479 0.029       .   A
C471       N482 0.028       .   A
C471       H489 0.021       .   A
C472       H476 0.021       .   A
C472       H477 0.021       .   A
C472       H478 0.021       .   A
C479       C480 0.030       .   A
C479       H486 0.021       .   A
C479       H488 0.021       .   A
C480       N481 0.028       .   A
C480       N483 0.029       .   A
C480       H487 0.021       .   A
N481       N482 0.028       .   A
N481       H485 0.019       .   A
N482       H484 0.019       .   A
N483       N490 0.024       .   A
N490       N491 0.029       .   A
N491       N492 0.024       .   A
C437       C438 0.025       .   A
C437       C442 0.025       .   A
C438       C439 0.025       .   A
C438       H445 0.020       .   A
C439       C440 0.025       .   A
C439       C444 0.029       .   A
C440       C441 0.025       .   A
C440       C443 0.030       .   A
C441       C442 0.026       .   A
C441       H447 0.020       .   A
C442       H446 0.021       .   A
C443       C451 0.029       .   A
C443       N454 0.028       .   A
C443       H461 0.021       .   A
C444       H448 0.021       .   A
C444       H449 0.021       .   A
C444       H450 0.021       .   A
C451       C452 0.030       .   A
C451       H458 0.021       .   A
C451       H460 0.021       .   A
C452       N453 0.028       .   A
C452       N455 0.029       .   A
C452       H459 0.021       .   A
N453       N454 0.028       .   A
N453       H457 0.019       .   A
N454       H456 0.019       .   A
N455       N462 0.024       .   A
N462       N463 0.029       .   A
N463       N464 0.024       .   A
C409       C410 0.025       .   A
C409       C414 0.025       .   A
C410       C411 0.025       .   A
C410       H417 0.020       .   A
C411       C412 0.025       .   A
C411       C416 0.029       .   A
C412       C413 0.025       .   A
C412       C415 0.030       .   A
C413       C414 0.026       .   A
C413       H419 0.020       .   A
C414       H418 0.021       .   A
C415       C423 0.029       .   A
C415       N426 0.028       .   A
C415       H433 0.021       .   A
C416       H420 0.021       .   A
C416       H421 0.021       .   A
C416       H422 0.021       .   A
C423       C424 0.030       .   A
C423       H430 0.021       .   A
C423       H432 0.021       .   A
C424       N425 0.028       .   A
C424       N427 0.029       .   A
C424       H431 0.021       .   A
N425       N426 0.028       .   A
N425       H429 0.019       .   A
N426       H428 0.019       .   A
N427       N434 0.024       .   A
N434       N435 0.029       .   A
N435       N436 0.024       .   A
C381       C382 0.025       .   A
C381       C386 0.025       .   A
C382       C383 0.025       .   A
C382       H389 0.020       .   A
C383       C384 0.025       .   A
C383       C388 0.029       .   A
C384       C385 0.025       .   A
C384       C387 0.030       .   A
C385       C386 0.026       .   A
C385       H391 0.020       .   A
C386       H390 0.021       .   A
C387       C395 0.029       .   A
C387       N398 0.028       .   A
C387       H405 0.021       .   A
C388       H392 0.021       .   A
C388       H393 0.021       .   A
C388       H394 0.021       .   A
C395       C396 0.030       .   A
C395       H402 0.021       .   A
C395       H404 0.021       .   A
C396       N397 0.028       .   A
C396       N399 0.029       .   A
C396       H403 0.021       .   A
N397       N398 0.028       .   A
N397       H401 0.019       .   A
N398       H400 0.019       .   A
N399       N406 0.024       .   A
N406       N407 0.029       .   A
N407       N408 0.024       .   A
C353       C354 0.025       .   A
C353       C358 0.025       .   A
C354       C355 0.025       .   A
C354       H361 0.020       .   A
C355       C356 0.025       .   A
C355       C360 0.029       .   A
C356       C357 0.025       .   A
C356       C359 0.030       .   A
C357       C358 0.026       .   A
C357       H363 0.020       .   A
C358       H362 0.021       .   A
C359       C367 0.029       .   A
C359       N370 0.028       .   A
C359       H377 0.021       .   A
C360       H364 0.021       .   A
C360       H365 0.021       .   A
C360       H366 0.021       .   A
C367       C368 0.030       .   A
C367       H374 0.021       .   A
C367       H376 0.021       .   A
C368       N369 0.028       .   A
C368       N371 0.029       .   A
C368       H375 0.021       .   A
N369       N370 0.028       .   A
N369       H373 0.019       .   A
N370       H372 0.019       .   A
N371       N378 0.024       .   A
N378       N379 0.029       .   A
N379       N380 0.024       .   A
C325       C326 0.025       .   A
C325       C330 0.025       .   A
C326       C327 0.025       .   A
C326       H333 0.020       .   A
C327       C328 0.025       .   A
C327       C332 0.029       .   A
C328       C329 0.025       .   A
C328       C331 0.030       .   A
C329       C330 0.026       .   A
C329       H335 0.020       .   A
C330       H334 0.021       .   A
C331       C339 0.029       .   A
C331       N342 0.028       .   A
C331       H349 0.021       .   A
C332       H336 0.021       .   A
C332       H337 0.021       .   A
C332       H338 0.021       .   A
C339       C340 0.030       .   A
C339       H346 0.021       .   A
C339       H348 0.021       .   A
C340       N341 0.028       .   A
C340       N343 0.029       .   A
C340       H347 0.021       .   A
N341       N342 0.028       .   A
N341       H345 0.019       .   A
N342       H344 0.019       .   A
N343       N350 0.024       .   A
N350       N351 0.029       .   A
N351       N352 0.024       .   A
C297       C298 0.025       .   A
C297       C302 0.025       .   A
C298       C299 0.025       .   A
C298       H305 0.020       .   A
C299       C300 0.025       .   A
C299       C304 0.029       .   A
C300       C301 0.025       .   A
C300       C303 0.030       .   A
C301       C302 0.026       .   A
C301       H307 0.020       .   A
C302       H306 0.021       .   A
C303       C311 0.029       .   A
C303       N314 0.028       .   A
C303       H321 0.021       .   A
C304       H308 0.021       .   A
C304       H309 0.021       .   A
C304       H310 0.021       .   A
C311       C312 0.030       .   A
C311       H318 0.021       .   A
C311       H320 0.021       .   A
C312       N313 0.028       .   A
C312       N315 0.029       .   A
C312       H319 0.021       .   A
N313       N314 0.028       .   A
N313       H317 0.019       .   A
N314       H316 0.019       .   A
N315       N322 0.024       .   A
N322       N323 0.029       .   A
N323       N324 0.024       .   A
C269       C270 0.025       .   A
C269       C274 0.025       .   A
C270       C271 0.025       .   A
C270       H277 0.020       .   A
C271       C272 0.025       .   A
C271       C276 0.029       .   A
C272       C273 0.025       .   A
C272       C275 0.030       .   A
C273       C274 0.026       .   A
C273       H279 0.020       .   A
C274       H278 0.021       .   A
C275       C283 0.029       .   A
C275       N286 0.028       .   A
C275       H293 0.021       .   A
C276       H280 0.021       .   A
C276       H281 0.021       .   A
C276       H282 0.021       .   A
C283       C284 0.030       .   A
C283       H290 0.021       .   A
C283       H292 0.021       .   A
C284       N285 0.028       .   A
C284       N287 0.029       .   A
C284       H291 0.021       .   A
N285       N286 0.028       .   A
N285       H289 0.019       .   A
N286       H288 0.019       .   A
N287       N294 0.024       .   A
N294       N295 0.029       .   A
N295       N296 0.024       .   A
C241       C242 0.025       .   A
C241       C246 0.025       .   A
C242       C243 0.025       .   A
C242       H249 0.020       .   A
C243       C244 0.025       .   A
C243       C248 0.029       .   A
C244       C245 0.025       .   A
C244       C247 0.030       .   A
C245       C246 0.026       .   A
C245       H251 0.020       .   A
C246       H250 0.021       .   A
C247       C255 0.029       .   A
C247       N258 0.028       .   A
C247       H265 0.021       .   A
C248       H252 0.021       .   A
C248       H253 0.021       .   A
C248       H254 0.021       .   A
C255       C256 0.030       .   A
C255       H262 0.021       .   A
C255       H264 0.021       .   A
C256       N257 0.028       .   A
C256       N259 0.029       .   A
C256       H263 0.021       .   A
N257       N258 0.028       .   A
N257       H261 0.019       .   A
N258       H260 0.019       .   A
N259       N266 0.024       .   A
N266       N267 0.029       .   A
N267       N268 0.024       .   A
C213       C214 0.025       .   A
C213       C218 0.025       .   A
C214       C215 0.025       .   A
C214       H221 0.020       .   A
C215       C216 0.025       .   A
C215       C220 0.029       .   A
C216       C217 0.025       .   A
C216       C219 0.030       .   A
C217       C218 0.026       .   A
C217       H223 0.020       .   A
C218       H222 0.021       .   A
C219       C227 0.029       .   A
C219       N230 0.028       .   A
C219       H237 0.021       .   A
C220       H224 0.021       .   A
C220       H225 0.021       .   A
C220       H226 0.021       .   A
C227       C228 0.030       .   A
C227       H234 0.021       .   A
C227       H236 0.021       .   A
C228       N229 0.028       .   A
C228       N231 0.029       .   A
C228       H235 0.021       .   A
N229       N230 0.028       .   A
N229       H233 0.019       .   A
N230       H232 0.019       .   A
N231       N238 0.024       .   A
N238       N239 0.029       .   A
N239       N240 0.024       .   A
C185       C186 0.025       .   A
C185       C190 0.025       .   A
C186       C187 0.025       .   A
C186       H193 0.020       .   A
C187       C188 0.025       .   A
C187       C192 0.029       .   A
C188       C189 0.025       .   A
C188       C191 0.030       .   A
C189       C190 0.026       .   A
C189       H195 0.020       .   A
C190       H194 0.021       .   A
C191       C199 0.029       .   A
C191       N202 0.028       .   A
C191       H209 0.021       .   A
C192       H196 0.021       .   A
C192       H197 0.021       .   A
C192       H198 0.021       .   A
C199       C200 0.030       .   A
C199       H206 0.021       .   A
C199       H208 0.021       .   A
C200       N201 0.028       .   A
C200       N203 0.029       .   A
C200       H207 0.021       .   A
N201       N202 0.028       .   A
N201       H205 0.019       .   A
N202       H204 0.019       .   A
N203       N210 0.024       .   A
N210       N211 0.029       .   A
N211       N212 0.024       .   A
