data_pcu_v1-6c_Zn_1_Ch_1-71_fer_tobacco
_audit_creation_date              2021-04-07
_audit_creation_method            'tobacco_3.0'
_symmetry_space_group_name_H-M    'P1'
_symmetry_Int_Tables_number       1
_symmetry_cell_setting            triclinic
loop_
_symmetry_equiv_pos_as_xyz
  x,y,z
_cell_length_a                    41.86474312668685
_cell_length_b                    41.86474312668685
_cell_length_c                    41.86474312668685
_cell_angle_alpha                 90.0
_cell_angle_beta                  90.0
_cell_angle_gamma                 90.0
loop_
_atom_site_label
_atom_site_type_symbol
_atom_site_fract_x
_atom_site_fract_y
_atom_site_fract_z
_atom_site_charge
Zn1       Zn   -0.0267814852   -0.0267814852    0.0267814852          1.4972
Zn2       Zn    0.0267814852    0.0267814852    0.0267814852          1.4936
Zn3       Zn    0.0267814852   -0.0267814852   -0.0267814852          1.4911
Zn4       Zn   -0.0267814852    0.0267814852   -0.0267814852          1.4948
O5         O    0.0000000000    0.0000000000    0.0000000000          -2.156
O6         O   -0.0196824330   -0.0196824330    0.0715781294         -1.0623
O7         O    0.0715781294    0.0196824330    0.0196824330         -1.0605
O8         O    0.0196824330   -0.0715781294   -0.0196824330         -1.0557
O9         O    0.0196824330    0.0196824330    0.0715781294         -1.0625
O10        O   -0.0196824330   -0.0715781294    0.0196824330         -1.0585
O11        O    0.0715781294   -0.0196824330   -0.0196824330         -1.0643
O12        O   -0.0196824330    0.0196824330   -0.0715781294         -1.0582
O13        O    0.0196824330    0.0715781294    0.0196824330         -1.0658
O14        O    0.0196824330   -0.0196824330   -0.0715781294         -1.0597
O15        O   -0.0196824330    0.0715781294   -0.0196824330         -1.0644
O16        O   -0.0715781294    0.0196824330   -0.0196824330         -1.0635
O17        O   -0.0715781294   -0.0196824330    0.0196824330         -1.0613
C18        C   -0.0000000000   -0.0000000000    0.0855803651          0.4566
C19        C    0.0855803651   -0.0000000000   -0.0000000000          0.4615
C20        C   -0.0000000000   -0.0855803651    0.0000000000          0.4511
C21        C    0.0000000000    0.0000000000   -0.0855803651          0.4548
C22        C    0.0000000000    0.0855803651   -0.0000000000          0.4662
C23        C   -0.0855803651    0.0000000000    0.0000000000          0.4567
Zn24      Zn    0.9732185148    0.0267814852    0.4732185148          1.4972
Zn25      Zn    1.0267814852   -0.0267814852    0.4732185148          1.4936
Zn26      Zn    1.0267814852    0.0267814852    0.5267814852          1.4911
Zn27      Zn    0.9732185148   -0.0267814852    0.5267814852          1.4948
O28        O    1.0000000000    0.0000000000    0.5000000000          -2.156
O29        O    0.9803175670    0.0196824330    0.4284218706         -1.0623
O30        O    1.0715781294   -0.0196824330    0.4803175670         -1.0605
O31        O    1.0196824330    0.0715781294    0.5196824330         -1.0557
O32        O    1.0196824330   -0.0196824330    0.4284218706         -1.0625
O33        O    0.9803175670    0.0715781294    0.4803175670         -1.0585
O34        O    1.0715781294    0.0196824330    0.5196824330         -1.0643
O35        O    0.9803175670   -0.0196824330    0.5715781294         -1.0582
O36        O    1.0196824330   -0.0715781294    0.4803175670         -1.0658
O37        O    1.0196824330    0.0196824330    0.5715781294         -1.0597
O38        O    0.9803175670   -0.0715781294    0.5196824330         -1.0644
O39        O    0.9284218706   -0.0196824330    0.5196824330         -1.0635
O40        O    0.9284218706    0.0196824330    0.4803175670         -1.0613
C41        C    1.0000000000    0.0000000000    0.4144196349          0.4566
C42        C    1.0855803651    0.0000000000    0.5000000000          0.4615
C43        C    1.0000000000    0.0855803651    0.5000000000          0.4511
C44        C    1.0000000000    0.0000000000    0.5855803651          0.4548
C45        C    1.0000000000   -0.0855803651    0.5000000000          0.4662
C46        C    0.9144196349    0.0000000000    0.5000000000          0.4567
Zn47      Zn    1.0267814852    0.4732185148   -0.0267814852          1.4972
Zn48      Zn    0.9732185148    0.4732185148    0.0267814852          1.4936
Zn49      Zn    1.0267814852    0.5267814852    0.0267814852          1.4911
Zn50      Zn    0.9732185148    0.5267814852   -0.0267814852          1.4948
O51        O    1.0000000000    0.5000000000    0.0000000000          -2.156
O52        O    1.0196824330    0.4284218706   -0.0196824330         -1.0623
O53        O    0.9803175670    0.4803175670    0.0715781294         -1.0605
O54        O    1.0715781294    0.5196824330    0.0196824330         -1.0557
O55        O    0.9803175670    0.4284218706    0.0196824330         -1.0625
O56        O    1.0715781294    0.4803175670   -0.0196824330         -1.0585
O57        O    1.0196824330    0.5196824330    0.0715781294         -1.0643
O58        O    0.9803175670    0.5715781294   -0.0196824330         -1.0582
O59        O    0.9284218706    0.4803175670    0.0196824330         -1.0658
O60        O    1.0196824330    0.5715781294    0.0196824330         -1.0597
O61        O    0.9284218706    0.5196824330   -0.0196824330         -1.0644
O62        O    0.9803175670    0.5196824330   -0.0715781294         -1.0635
O63        O    1.0196824330    0.4803175670   -0.0715781294         -1.0613
C64        C    1.0000000000    0.4144196349    0.0000000000          0.4566
C65        C    1.0000000000    0.5000000000    0.0855803651          0.4615
C66        C    1.0855803651    0.5000000000    0.0000000000          0.4511
C67        C    1.0000000000    0.5855803651    0.0000000000          0.4548
C68        C    0.9144196349    0.5000000000    0.0000000000          0.4662
C69        C    1.0000000000    0.5000000000   -0.0855803651          0.4567
Zn70      Zn    0.9732185148    0.4732185148    0.5267814852          1.4972
Zn71      Zn    1.0267814852    0.4732185148    0.4732185148          1.4936
Zn72      Zn    0.9732185148    0.5267814852    0.4732185148          1.4911
Zn73      Zn    1.0267814852    0.5267814852    0.5267814852          1.4948
O74        O    1.0000000000    0.5000000000    0.5000000000          -2.156
O75        O    0.9803175670    0.4284218706    0.5196824330         -1.0623
O76        O    1.0196824330    0.4803175670    0.4284218706         -1.0605
O77        O    0.9284218706    0.5196824330    0.4803175670         -1.0557
O78        O    1.0196824330    0.4284218706    0.4803175670         -1.0625
O79        O    0.9284218706    0.4803175670    0.5196824330         -1.0585
O80        O    0.9803175670    0.5196824330    0.4284218706         -1.0643
O81        O    1.0196824330    0.5715781294    0.5196824330         -1.0582
O82        O    1.0715781294    0.4803175670    0.4803175670         -1.0658
O83        O    0.9803175670    0.5715781294    0.4803175670         -1.0597
O84        O    1.0715781294    0.5196824330    0.5196824330         -1.0644
O85        O    1.0196824330    0.5196824330    0.5715781294         -1.0635
O86        O    0.9803175670    0.4803175670    0.5715781294         -1.0613
C87        C    1.0000000000    0.4144196349    0.5000000000          0.4566
C88        C    1.0000000000    0.5000000000    0.4144196349          0.4615
C89        C    0.9144196349    0.5000000000    0.5000000000          0.4511
C90        C    1.0000000000    0.5855803651    0.5000000000          0.4548
C91        C    1.0855803651    0.5000000000    0.5000000000          0.4662
C92        C    1.0000000000    0.5000000000    0.5855803651          0.4567
Zn93      Zn    0.4732185148    0.9732185148   -0.0267814852          1.4972
Zn94      Zn    0.4732185148    1.0267814852    0.0267814852          1.4936
Zn95      Zn    0.5267814852    0.9732185148    0.0267814852          1.4911
Zn96      Zn    0.5267814852    1.0267814852   -0.0267814852          1.4948
O97        O    0.5000000000    1.0000000000    0.0000000000          -2.156
O98        O    0.4284218706    0.9803175670   -0.0196824330         -1.0623
O99        O    0.4803175670    1.0196824330    0.0715781294         -1.0605
O100       O    0.5196824330    0.9284218706    0.0196824330         -1.0557
O101       O    0.4284218706    1.0196824330    0.0196824330         -1.0625
O102       O    0.4803175670    0.9284218706   -0.0196824330         -1.0585
O103       O    0.5196824330    0.9803175670    0.0715781294         -1.0643
O104       O    0.5715781294    1.0196824330   -0.0196824330         -1.0582
O105       O    0.4803175670    1.0715781294    0.0196824330         -1.0658
O106       O    0.5715781294    0.9803175670    0.0196824330         -1.0597
O107       O    0.5196824330    1.0715781294   -0.0196824330         -1.0644
O108       O    0.5196824330    1.0196824330   -0.0715781294         -1.0635
O109       O    0.4803175670    0.9803175670   -0.0715781294         -1.0613
C110       C    0.4144196349    1.0000000000    0.0000000000          0.4566
C111       C    0.5000000000    1.0000000000    0.0855803651          0.4615
C112       C    0.5000000000    0.9144196349    0.0000000000          0.4511
C113       C    0.5855803651    1.0000000000    0.0000000000          0.4548
C114       C    0.5000000000    1.0855803651    0.0000000000          0.4662
C115       C    0.5000000000    1.0000000000   -0.0855803651          0.4567
Zn116     Zn    0.5267814852    1.0267814852    0.5267814852          1.4972
Zn117     Zn    0.4732185148    1.0267814852    0.4732185148          1.4936
Zn118     Zn    0.5267814852    0.9732185148    0.4732185148          1.4911
Zn119     Zn    0.4732185148    0.9732185148    0.5267814852          1.4948
O120       O    0.5000000000    1.0000000000    0.5000000000          -2.156
O121       O    0.5196824330    1.0715781294    0.5196824330         -1.0623
O122       O    0.4803175670    1.0196824330    0.4284218706         -1.0605
O123       O    0.5715781294    0.9803175670    0.4803175670         -1.0557
O124       O    0.4803175670    1.0715781294    0.4803175670         -1.0625
O125       O    0.5715781294    1.0196824330    0.5196824330         -1.0585
O126       O    0.5196824330    0.9803175670    0.4284218706         -1.0643
O127       O    0.4803175670    0.9284218706    0.5196824330         -1.0582
O128       O    0.4284218706    1.0196824330    0.4803175670         -1.0658
O129       O    0.5196824330    0.9284218706    0.4803175670         -1.0597
O130       O    0.4284218706    0.9803175670    0.5196824330         -1.0644
O131       O    0.4803175670    0.9803175670    0.5715781294         -1.0635
O132       O    0.5196824330    1.0196824330    0.5715781294         -1.0613
C133       C    0.5000000000    1.0855803651    0.5000000000          0.4566
C134       C    0.5000000000    1.0000000000    0.4144196349          0.4615
C135       C    0.5855803651    1.0000000000    0.5000000000          0.4511
C136       C    0.5000000000    0.9144196349    0.5000000000          0.4548
C137       C    0.4144196349    1.0000000000    0.5000000000          0.4662
C138       C    0.5000000000    1.0000000000    0.5855803651          0.4567
Zn139     Zn    0.4732185148    0.5267814852   -0.0267814852          1.4972
Zn140     Zn    0.4732185148    0.4732185148    0.0267814852          1.4936
Zn141     Zn    0.5267814852    0.4732185148   -0.0267814852          1.4911
Zn142     Zn    0.5267814852    0.5267814852    0.0267814852          1.4948
O143       O    0.5000000000    0.5000000000    0.0000000000          -2.156
O144       O    0.4284218706    0.5196824330   -0.0196824330         -1.0623
O145       O    0.4803175670    0.4284218706    0.0196824330         -1.0605
O146       O    0.5196824330    0.4803175670   -0.0715781294         -1.0557
O147       O    0.4284218706    0.4803175670    0.0196824330         -1.0625
O148       O    0.4803175670    0.5196824330   -0.0715781294         -1.0585
O149       O    0.5196824330    0.4284218706   -0.0196824330         -1.0643
O150       O    0.5715781294    0.5196824330    0.0196824330         -1.0582
O151       O    0.4803175670    0.4803175670    0.0715781294         -1.0658
O152       O    0.5715781294    0.4803175670   -0.0196824330         -1.0597
O153       O    0.5196824330    0.5196824330    0.0715781294         -1.0644
O154       O    0.5196824330    0.5715781294    0.0196824330         -1.0635
O155       O    0.4803175670    0.5715781294   -0.0196824330         -1.0613
C156       C    0.4144196349    0.5000000000    0.0000000000          0.4566
C157       C    0.5000000000    0.4144196349    0.0000000000          0.4615
C158       C    0.5000000000    0.5000000000   -0.0855803651          0.4511
C159       C    0.5855803651    0.5000000000    0.0000000000          0.4548
C160       C    0.5000000000    0.5000000000    0.0855803651          0.4662
C161       C    0.5000000000    0.5855803651    0.0000000000          0.4567
Zn162     Zn    0.4732185148    0.5267814852    0.4732185148          1.4972
Zn163     Zn    0.4732185148    0.4732185148    0.5267814852          1.4936
Zn164     Zn    0.5267814852    0.4732185148    0.4732185148          1.4911
Zn165     Zn    0.5267814852    0.5267814852    0.5267814852          1.4948
O166       O    0.5000000000    0.5000000000    0.5000000000          -2.156
O167       O    0.4284218706    0.5196824330    0.4803175670         -1.0623
O168       O    0.4803175670    0.4284218706    0.5196824330         -1.0605
O169       O    0.5196824330    0.4803175670    0.4284218706         -1.0557
O170       O    0.4284218706    0.4803175670    0.5196824330         -1.0625
O171       O    0.4803175670    0.5196824330    0.4284218706         -1.0585
O172       O    0.5196824330    0.4284218706    0.4803175670         -1.0643
O173       O    0.5715781294    0.5196824330    0.5196824330         -1.0582
O174       O    0.4803175670    0.4803175670    0.5715781294         -1.0658
O175       O    0.5715781294    0.4803175670    0.4803175670         -1.0597
O176       O    0.5196824330    0.5196824330    0.5715781294         -1.0644
O177       O    0.5196824330    0.5715781294    0.5196824330         -1.0635
O178       O    0.4803175670    0.5715781294    0.4803175670         -1.0613
C179       C    0.4144196349    0.5000000000    0.5000000000          0.4566
C180       C    0.5000000000    0.4144196349    0.5000000000          0.4615
C181       C    0.5000000000    0.5000000000    0.4144196349          0.4511
C182       C    0.5855803651    0.5000000000    0.5000000000          0.4548
C183       C    0.5000000000    0.5000000000    0.5855803651          0.4662
C184       C    0.5000000000    0.5855803651    0.5000000000          0.4567
C760       C    0.5000000000    0.5000000000   -0.1223654946         -0.3164
C761       C    0.4854153224    0.5254957649   -0.1352710233         -0.3155
C762       C    0.4815715769    0.5279436834   -0.1670534289         -0.3173
C763       C    0.4922326957    0.5048864983   -0.1867448719          0.6801
C764       C    0.5071567152    0.4797502560   -0.1737017715          0.6797
C765       C    0.5110197914    0.4773627807   -0.1420405265          0.6815
C766       C    0.4861016367    0.5074046167   -0.2227737869          0.6767
C767       C    0.4687184670    0.5501677396   -0.1740708020         -0.3166
H768       H    0.4764129455    0.5442726708   -0.1195046428         -0.3136
H769       H    0.5230817537    0.4564195390   -0.1324877628          0.6808
H770       H    0.5160828948    0.4605964174   -0.1888095616          0.6775
C771       C    0.5092283845    0.4908968812   -0.2462140236         -0.3137
N772       N    0.5029933603    0.5045060666   -0.2781171619         -0.3121
N773       N    0.4933704046    0.5282136763   -0.2719368214         -0.3084
N774       N    0.4781865877    0.5182683212   -0.2454511517          0.6757
N775       N    0.5106081039    0.4881748544   -0.3042741413          -0.314
H776       H    0.5049043357    0.4650905903   -0.2466364735          0.6712
H777       H    0.5341526590    0.4952019323   -0.2394209856         -0.2932
H778       H    0.4612497656    0.5015249411   -0.2283776280          0.6555
N779       N    0.5196923803    0.4682691555   -0.3256130217         -0.3164
C780       C    0.5126881018    0.4790745685   -0.3569471094         -0.3166
C781       C    0.5000000000    0.5000000000   -0.3776345054         -0.3165
H782       H    0.4880169425    0.5206586202   -0.3672784147         -0.3159
H783       H    0.5258688555    0.4567756138   -0.3524054633          -0.317
N784       N    0.4535098699    0.5698921586   -0.1853053636          0.6811
C735       C    0.5000000000    0.5000000000    0.1223654946         -0.3164
C736       C    0.4706431940    0.4990383394    0.1352710233         -0.3155
C737       C    0.4665425138    0.5010260782    0.1670534289         -0.3173
C738       C    0.4917647119    0.5040483222    0.1867448719          0.6801
C739       C    0.5209935101    0.5045324649    0.1737017715          0.6797
C740       C    0.5250528783    0.5024965557    0.1420405265          0.6815
C741       C    0.4864041323    0.5079463973    0.2227737869          0.6767
C742       C    0.4408794269    0.5003069944    0.1740708020         -0.3166
H743       H    0.4499350909    0.4968498587    0.1195046428         -0.3136
H744       H    0.5492105090    0.5032171012    0.1324877628          0.6808
H745       H    0.5419825125    0.5069835859    0.1888095616          0.6775
C746       C    0.5125914791    0.4969203074    0.2462140236         -0.3137
N747       N    0.4977346229    0.4950874744    0.2781171619         -0.3121
N748       N    0.4725034416    0.4908401777    0.2719368214         -0.3084
N749       N    0.4730029811    0.5089842909    0.2454511517          0.6757
N750       N    0.5156326463    0.4971739948    0.3042741413          -0.314
H751       H    0.5322913437    0.5141417296    0.2466364735          0.6712
H752       H    0.5220042369    0.4734436612    0.2394209856         -0.2932
H753       H    0.4783698278    0.5321876026    0.2283776280          0.6555
N754       N    0.5373446531    0.4998850257    0.3256130217         -0.3164
C755       C    0.5244710005    0.5001781736    0.3569471094         -0.3166
C756       C    0.5000000000    0.5000000000    0.3776345054         -0.3165
H757       H    0.4761260659    0.4993616226    0.3672784147         -0.3159
H758       H    0.5503697604    0.5006576362    0.3524054633          -0.317
N759       N    0.4161083498    0.5029046596    0.1853053636          0.6811
C710       C    0.5000000000    0.8776345054    0.5000000000         -0.3164
C711       C    0.5006480161    0.8647289767    0.4706345965         -0.3155
C712       C    0.4986165872    0.8329465711    0.4665553833         -0.3173
C713       C    0.4958639393    0.8132551281    0.4918084260          0.6801
C714       C    0.4956920465    0.8262982285    0.5210407282          0.6797
C715       C    0.4977712017    0.8579594735    0.5250781171          0.6815
C716       C    0.4919088249    0.7772262131    0.4864897914          0.6767
C717       C    0.4990614967    0.8259291980    0.4408860793         -0.3166
H718       H    0.5026151679    0.8804953572    0.4499042975         -0.3136
H719       H    0.4973087494    0.8675122372    0.5492420664          0.6808
H720       H    0.4934652701    0.8111904384    0.5420547159          0.6775
C721       C    0.5032140191    0.7537859764    0.5125578634         -0.3137
N722       N    0.5048880466    0.7218828381    0.4976822765         -0.3121
N723       N    0.5088655812    0.7280631786    0.4724071652         -0.3084
N724       N    0.4907278393    0.7545488483    0.4731004916          0.6757
N725       N    0.5029928320    0.6957258587    0.5156015670          -0.314
H726       H    0.4862040137    0.7533635265    0.5324405634          0.6712
H727       H    0.5267898730    0.7605790144    0.5217193065         -0.2932
H728       H    0.4675831802    0.7716223720    0.4787148902          0.6555
N729       N    0.5005138836    0.6743869783    0.5373412943         -0.3164
C730       C    0.5000832360    0.6430528906    0.5244715076         -0.3166
C731       C    0.5000000000    0.6223654946    0.5000000000         -0.3165
H732       H    0.5003833195    0.6327215853    0.4761206089         -0.3159
H733       H    0.4998804515    0.6475945367    0.5503739114          -0.317
N734       N    0.4961993749    0.8146946364    0.4161441638          0.6811
C685       C    0.5000000000    1.1223654946    0.5000000000         -0.3164
C686       C    0.5293547825    1.1352710233    0.4989784358         -0.3155
C687       C    0.5334595104    1.1670534289    0.5009578027         -0.3173
C688       C    0.5082435319    1.1867448719    0.5040315089          0.6801
C689       C    0.4790157825    1.1737017715    0.5045752948          0.6797
C690       C    0.4749522684    1.1420405265    0.5025476735          0.6815
C691       C    0.5136120549    1.2227737869    0.5079186370          0.6767
C692       C    0.5591210764    1.1740708020    0.5001863522         -0.3166
H693       H    0.5500583767    1.1195046428    0.4967477027         -0.3136
H694       H    0.4507961583    1.1324877628    0.5033175136          0.6808
H695       H    0.4580318256    1.1888095616    0.5070692409          0.6775
C696       C    0.4874022627    1.2462140236    0.4969460080         -0.3137
N697       N    0.5022553479    1.2781171619    0.4950828619         -0.3121
N698       N    0.5274778096    1.2719368214    0.4907840873         -0.3084
N699       N    0.5270152961    1.2454511517    0.5089291821          0.6757
N700       N    0.4843616195    1.3042741413    0.4972059007          -0.314
H701       H    0.4677375811    1.2466364735    0.5142075939          0.6712
H702       H    0.4779416180    1.2394209856    0.4734886184         -0.2932
H703       H    0.5216958092    1.2283776280    0.5321433970          0.6555
N704       N    0.4626551900    1.3256130217    0.4999612315         -0.3164
C705       C    0.4755294140    1.3569471094    0.5002281088         -0.3166
C706       C    0.5000000000    1.3776345054    0.5000000000         -0.3165
H707       H    0.5238725817    1.3672784147    0.4993129067         -0.3159
H708       H    0.4496316865    1.3524054633    0.5007604194          -0.317
N709       N    0.5838974028    1.1853053636    0.5027334641          0.6811
C660       C    0.5000000000    0.6223654946    0.0000000000         -0.3164
C661       C    0.4715345760    0.6352710233    0.0072433753         -0.3155
C662       C    0.4671027099    0.6670534289    0.0061825986         -0.3173
C663       C    0.4910874889    0.6867448719   -0.0021854127          0.6801
C664       C    0.5195304348    0.6737017715   -0.0089349215          0.6797
C665       C    0.5239322968    0.6420405265   -0.0078182269          0.6815
C666       C    0.4850148858    0.7227737869   -0.0048414051          0.6767
C667       C    0.4421927418    0.6740708020    0.0123958583         -0.3166
H668       H    0.4517795372    0.6195046428    0.0138277071         -0.3136
H669       H    0.5473716161    0.6324877628   -0.0137096289          0.6808
H670       H    0.5395034197    0.6888095616   -0.0158360873          0.6775
C671       C    0.5129590696    0.7462140236    0.0003039218         -0.3137
N672       N    0.4988423998    0.7781171619    0.0052843924         -0.3121
N673       N    0.4751119179    0.7719368214    0.0148508059         -0.3084
N674       N    0.4717034939    0.7454511517   -0.0029772907          0.6757
N675       N    0.5158748112    0.8042741413   -0.0005969147          -0.314
H676       H    0.5285011822    0.7466364735   -0.0207461324          0.6712
H677       H    0.5271936648    0.7394209856    0.0212115573         -0.2932
H678       H    0.4719624025    0.7283776280   -0.0267917755          0.6555
N679       N    0.5364981196    0.8256130217   -0.0079071865         -0.3164
C680       C    0.5238618486    0.8569471094   -0.0054289771         -0.3166
C681       C    0.5000000000    0.8776345054    0.0000000000         -0.3165
H682       H    0.4768201139    0.8672784147    0.0057502293         -0.3159
H683       H    0.5490534485    0.8524054633   -0.0114588147          -0.317
N684       N    0.4174417270    0.6853053636    0.0151781941          0.6811
C635       C    0.5000000000    1.1223654946    0.0000000000         -0.3164
C636       C    0.5229409890    1.1352710233   -0.0183427880         -0.3155
C637       C    0.5274157116    1.1670534289   -0.0192050769         -0.3173
C638       C    0.5090202266    1.1867448719   -0.0016865333          0.6801
C639       C    0.4858959464    1.1737017715    0.0161971101          0.6797
C640       C    0.4814254835    1.1420405265    0.0169960830          0.6815
C641       C    0.5156476984    1.2227737869   -0.0017726769          0.6767
C642       C    0.5475430046    1.1740708020   -0.0351425542         -0.3166
H643       H    0.5382194793    1.1195046428   -0.0324913821         -0.3136
H644       H    0.4625050291    1.1324877628    0.0320335931          0.6808
H645       H    0.4705496500    1.1888095616    0.0307242365          0.6775
C646       C    0.4880699981    1.2462140236    0.0050700006         -0.3137
N647       N    0.4988741610    1.2781171619   -0.0052912502         -0.3121
N648       N    0.5165435483    1.2719368214   -0.0237965139         -0.3084
N649       N    0.5270041150    1.2454511517   -0.0089629396          0.6757
N650       N    0.4857856872    1.3042741413    0.0070936061          -0.314
H651       H    0.4825976085    1.2466364735    0.0306573998          0.6712
H652       H    0.4664771117    1.2394209856   -0.0081019463         -0.2932
H653       H    0.5365940090    1.2283776280    0.0128368459          0.6555
N654       N    0.4700157967    1.3256130217    0.0222617135         -0.3164
C655       C    0.4805038632    1.3569471094    0.0147906140         -0.3166
C656       C    0.5000000000    1.3776345054    0.0000000000         -0.3165
H657       H    0.5187423801    1.3672784147   -0.0148018729         -0.3159
H658       H    0.4600443487    1.3524054633    0.0306772093          -0.317
N659       N    0.5689410869    1.1853053636   -0.0478891696          0.6811
C610       C    0.5000000000    1.0000000000   -0.1223654946         -0.3164
C611       C    0.4854153224    1.0254957649   -0.1352710233         -0.3155
C612       C    0.4815715769    1.0279436834   -0.1670534289         -0.3173
C613       C    0.4922326957    1.0048864983   -0.1867448719          0.6801
C614       C    0.5071567152    0.9797502560   -0.1737017715          0.6797
C615       C    0.5110197914    0.9773627807   -0.1420405265          0.6815
C616       C    0.4861016367    1.0074046167   -0.2227737869          0.6767
C617       C    0.4687184670    1.0501677396   -0.1740708020         -0.3166
H618       H    0.4764129455    1.0442726708   -0.1195046428         -0.3136
H619       H    0.5230817537    0.9564195390   -0.1324877628          0.6808
H620       H    0.5160828948    0.9605964174   -0.1888095616          0.6775
C621       C    0.5092283845    0.9908968812   -0.2462140236         -0.3137
N622       N    0.5029933603    1.0045060666   -0.2781171619         -0.3121
N623       N    0.4933704046    1.0282136763   -0.2719368214         -0.3084
N624       N    0.4781865877    1.0182683212   -0.2454511517          0.6757
N625       N    0.5106081039    0.9881748544   -0.3042741413          -0.314
H626       H    0.5049043357    0.9650905903   -0.2466364735          0.6712
H627       H    0.5341526590    0.9952019323   -0.2394209856         -0.2932
H628       H    0.4612497656    1.0015249411   -0.2283776280          0.6555
N629       N    0.5196923803    0.9682691555   -0.3256130217         -0.3164
C630       C    0.5126881018    0.9790745685   -0.3569471094         -0.3166
C631       C    0.5000000000    1.0000000000   -0.3776345054         -0.3165
H632       H    0.4880169425    1.0206586202   -0.3672784147         -0.3159
H633       H    0.5258688555    0.9567756138   -0.3524054633          -0.317
N634       N    0.4535098699    1.0698921586   -0.1853053636          0.6811
C585       C    0.5000000000    1.0000000000    0.1223654946         -0.3164
C586       C    0.5293568060    1.0009616606    0.1352710233         -0.3155
C587       C    0.5334574862    0.9989739218    0.1670534289         -0.3173
C588       C    0.5082352881    0.9959516778    0.1867448719          0.6801
C589       C    0.4790064899    0.9954675351    0.1737017715          0.6797
C590       C    0.4749471217    0.9975034443    0.1420405265          0.6815
C591       C    0.5135958677    0.9920536027    0.2227737869          0.6767
C592       C    0.5591205731    0.9996930056    0.1740708020         -0.3166
H593       H    0.5500649091    1.0031501413    0.1195046428         -0.3136
H594       H    0.4507894910    0.9967828988    0.1324877628          0.6808
H595       H    0.4580174875    0.9930164141    0.1888095616          0.6775
C596       C    0.4874085209    1.0030796926    0.2462140236         -0.3137
N597       N    0.5022653771    1.0049125256    0.2781171619         -0.3121
N598       N    0.5274965584    1.0091598223    0.2719368214         -0.3084
N599       N    0.5269970189    0.9910157091    0.2454511517          0.6757
N600       N    0.4843673537    1.0028260052    0.3042741413          -0.314
H601       H    0.4677086563    0.9858582704    0.2466364735          0.6712
H602       H    0.4779957631    1.0265563388    0.2394209856         -0.2932
H603       H    0.5216301722    0.9678123974    0.2283776280          0.6555
N604       N    0.4626553469    1.0001149743    0.3256130217         -0.3164
C605       C    0.4755289995    0.9998218264    0.3569471094         -0.3166
C606       C    0.5000000000    1.0000000000    0.3776345054         -0.3165
H607       H    0.5238739341    1.0006383774    0.3672784147         -0.3159
H608       H    0.4496302396    0.9993423638    0.3524054633          -0.317
N609       N    0.5838916502    0.9970953404    0.1853053636          0.6811
C560       C    0.8776345054    0.5000000000    0.5000000000         -0.3164
C561       C    0.8647289767    0.4845299403    0.5249684621         -0.3155
C562       C    0.8329465711    0.4806026907    0.5272800406         -0.3173
C563       C    0.8132551281    0.4920660640    0.5046110240          0.6801
C564       C    0.8262982285    0.5078626452    0.4800137668          0.6797
C565       C    0.8579594735    0.5118070934    0.4777632726          0.6815
C566       C    0.7772262131    0.4858504462    0.5069125231          0.6767
C567       C    0.8259291980    0.4669779003    0.5490395487         -0.3166
H568       H    0.8804953572    0.4748744346    0.5434180202         -0.3136
H569       H    0.8675122372    0.5245962938    0.4572560383          0.6808
H570       H    0.8111904384    0.5174552228    0.4611848352          0.6775
C571       C    0.7537859764    0.5095420304    0.4912262033         -0.3137
N572       N    0.7218828381    0.5028334511    0.5046082965         -0.3121
N573       N    0.7280631786    0.4923847858    0.5279637547         -0.3084
N574       N    0.7545488483    0.4775591838    0.5174918920          0.6757
N575       N    0.6957258587    0.5110163858    0.4885542506          -0.314
H576       H    0.7533635265    0.5061258939    0.4652841129          0.6712
H577       H    0.7605790144    0.5342999498    0.4964029159         -0.2932
H578       H    0.7716223720    0.4612201214    0.5001646950          0.6555
N579       N    0.6743869783    0.5207933373    0.4689794671         -0.3164
C580       C    0.6430528906    0.5134143298    0.4795325291         -0.3166
C581       C    0.6223654946    0.5000000000    0.5000000000         -0.3165
H582       H    0.6327215853    0.4872996400    0.5202255559         -0.3159
H583       H    0.6475945367    0.5273691896    0.4577096618          -0.317
N584       N    0.8146946364    0.4510867564    0.5682183306          0.6811
C535       C    1.1223654946    0.5000000000    0.5000000000         -0.3164
C536       C    1.1352710233    0.5170977883    0.4761166902         -0.3155
C537       C    1.1670534289    0.5177210723    0.4716024682         -0.3173
C538       C    1.1867448719    0.5012048160    0.4909028960          0.6801
C539       C    1.1737017715    0.4845752637    0.5149448391          0.6797
C540       C    1.1420405265    0.4840149799    0.5194514429          0.6815
C541       C    1.2227737869    0.5009386545    0.4842802106          0.6767
C542       C    1.1740708020    0.5325664681    0.4506566969         -0.3166
H543       H    1.1195046428    0.5304144935    0.4601079319         -0.3136
H544       H    1.1324877628    0.4700041483    0.5391442565          0.6808
H545       H    1.1888095616    0.4708841643    0.5310414229          0.6775
C546       C    1.2462140236    0.4955711225    0.5121825652         -0.3137
N547       N    1.2781171619    0.5053436010    0.5008430716         -0.3121
N548       N    1.2719368214    0.5228837681    0.4822152812         -0.3084
N549       N    1.2454511517    0.5075152787    0.4725577497          0.6757
N550       N    1.3042741413    0.4936717643    0.5145711829          -0.314
H551       H    1.2466364735    0.4703106788    0.5190069355          0.6712
H552       H    1.2394209856    0.5098719031    0.5330449860         -0.2932
H553       H    1.2283776280    0.4852366882    0.4641398447          0.6555
N554       N    1.3256130217    0.4793630994    0.5311248240         -0.3164
C555       C    1.3569471094    0.4862663075    0.5202545625         -0.3166
C556       C    1.3776345054    0.5000000000    0.5000000000         -0.3165
H557       H    1.3672784147    0.5137849901    0.4804975308         -0.3159
H558       H    1.3524054633    0.4714893761    0.5415293820          -0.317
N559       N    1.1853053636    0.5441579807    0.4286114942          0.6811
C510       C    0.6223654946    0.5000000000    0.0000000000         -0.3164
C511       C    0.6352710233    0.4706449924    0.0010150760         -0.3155
C512       C    0.6670534289    0.4666872951    0.0032741280         -0.3173
C513       C    0.6867448719    0.4920556542    0.0045930657          0.6801
C514       C    0.6737017715    0.5212508257    0.0031101630          0.6797
C515       C    0.6420405265    0.5251640645    0.0008058284          0.6815
C516       C    0.7227737869    0.4869694011    0.0088428695          0.6767
C517       C    0.6740708020    0.4410339579    0.0042827894         -0.3166
H518       H    0.6195046428    0.4498365854    0.0002243924         -0.3136
H519       H    0.6324877628    0.5493154531   -0.0001001166          0.6808
H520       H    0.6888095616    0.5423571612    0.0041439986          0.6775
C521       C    0.7462140236    0.5123558227   -0.0039196299         -0.3137
N522       N    0.7781171619    0.4974093331   -0.0047490301         -0.3121
N523       N    0.7719368214    0.4719496134   -0.0072896419         -0.3084
N524       N    0.7454511517    0.4736684071    0.0107797834          0.6757
N525       N    0.8042741413    0.5154071662   -0.0038710680          -0.314
H526       H    0.7466364735    0.5331694003    0.0119377668          0.6712
H527       H    0.7394209856    0.5201682094   -0.0279762203         -0.2932
H528       H    0.7283776280    0.4805837709    0.0335695719          0.6555
N529       N    0.8256130217    0.5372523505   -0.0026265408         -0.3164
C530       C    0.8569471094    0.5244275684   -0.0014681661         -0.3166
C531       C    0.8776345054    0.5000000000    0.0000000000         -0.3165
H532       H    0.8672784147    0.4761371922    0.0009688454         -0.3159
H533       H    0.8524054633    0.5502999279   -0.0027317577          -0.317
N534       N    0.6853053636    0.4164936972    0.0085406916          0.6811
C485       C    1.1223654946    0.5000000000    0.0000000000         -0.3164
C486       C    1.1352710233    0.4746599810    0.0148536286         -0.3155
C487       C    1.1670534289    0.4722528696    0.0187230600         -0.3173
C488       C    1.1867448719    0.4951959601    0.0078185730          0.6801
C489       C    1.1737017715    0.5201728862   -0.0073705745          0.6797
C490       C    1.1420405265    0.5225193531   -0.0112586960          0.6815
C491       C    1.2227737869    0.4927428546    0.0139759325          0.6767
C492       C    1.1740708020    0.4501660547    0.0318106004         -0.3166
H493       H    1.1195046428    0.4559793792    0.0240541775         -0.3136
H494       H    1.1324877628    0.5433337963   -0.0235415809          0.6808
H495       H    1.1888095616    0.5392312058   -0.0164989187          0.6775
C496       C    1.2462140236    0.5090049649   -0.0093241868         -0.3137
N497       N    1.2781171619    0.4954625133   -0.0029455146         -0.3121
N498       N    1.2719368214    0.4718580500    0.0069277496         -0.3084
N499       N    1.2454511517    0.4819635064    0.0220054860          0.6757
N500       N    1.3042741413    0.5117122407   -0.0107326304          -0.314
H501       H    1.2466364735    0.5348555634   -0.0052734332          0.6712
H502       H    1.2394209856    0.5044364342   -0.0342015149         -0.2932
H503       H    1.2283776280    0.4988851555    0.0387642004          0.6555
N504       N    1.3256130217    0.5315207057   -0.0200270180         -0.3164
C505       C    1.3569471094    0.5207900089   -0.0129088009         -0.3166
C506       C    1.3776345054    0.5000000000    0.0000000000         -0.3165
H507       H    1.3672784147    0.4794693274    0.0122009729         -0.3159
H508       H    1.3524054633    0.5429482515   -0.0263247591          -0.317
N509       N    1.1853053636    0.4306036601    0.0472270476          0.6811
C460       C    1.0000000000    0.5000000000   -0.1223654946         -0.3164
C461       C    1.0293568060    0.4990383394   -0.1352710233         -0.3155
C462       C    1.0334574862    0.5010260782   -0.1670534289         -0.3173
C463       C    1.0082352881    0.5040483222   -0.1867448719          0.6801
C464       C    0.9790064899    0.5045324649   -0.1737017715          0.6797
C465       C    0.9749471217    0.5024965557   -0.1420405265          0.6815
C466       C    1.0135958677    0.5079463973   -0.2227737869          0.6767
C467       C    1.0591205731    0.5003069944   -0.1740708020         -0.3166
H468       H    1.0500649091    0.4968498587   -0.1195046428         -0.3136
H469       H    0.9507894910    0.5032171012   -0.1324877628          0.6808
H470       H    0.9580174875    0.5069835859   -0.1888095616          0.6775
C471       C    0.9874085209    0.4969203074   -0.2462140236         -0.3137
N472       N    1.0022653771    0.4950874744   -0.2781171619         -0.3121
N473       N    1.0274965584    0.4908401777   -0.2719368214         -0.3084
N474       N    1.0269970189    0.5089842909   -0.2454511517          0.6757
N475       N    0.9843673537    0.4971739948   -0.3042741413          -0.314
H476       H    0.9677086563    0.5141417296   -0.2466364735          0.6712
H477       H    0.9779957631    0.4734436612   -0.2394209856         -0.2932
H478       H    1.0216301722    0.5321876026   -0.2283776280          0.6555
N479       N    0.9626553469    0.4998850257   -0.3256130217         -0.3164
C480       C    0.9755289995    0.5001781736   -0.3569471094         -0.3166
C481       C    1.0000000000    0.5000000000   -0.3776345054         -0.3165
H482       H    1.0238739341    0.4993616226   -0.3672784147         -0.3159
H483       H    0.9496302396    0.5006576362   -0.3524054633          -0.317
N484       N    1.0838916502    0.5029046596   -0.1853053636          0.6811
C435       C    1.0000000000    0.5000000000    0.1223654946         -0.3164
C436       C    0.9706431940    0.4990383394    0.1352710233         -0.3155
C437       C    0.9665425138    0.5010260782    0.1670534289         -0.3173
C438       C    0.9917647119    0.5040483222    0.1867448719          0.6801
C439       C    1.0209935101    0.5045324649    0.1737017715          0.6797
C440       C    1.0250528783    0.5024965557    0.1420405265          0.6815
C441       C    0.9864041323    0.5079463973    0.2227737869          0.6767
C442       C    0.9408794269    0.5003069944    0.1740708020         -0.3166
H443       H    0.9499350909    0.4968498587    0.1195046428         -0.3136
H444       H    1.0492105090    0.5032171012    0.1324877628          0.6808
H445       H    1.0419825125    0.5069835859    0.1888095616          0.6775
C446       C    1.0125914791    0.4969203074    0.2462140236         -0.3137
N447       N    0.9977346229    0.4950874744    0.2781171619         -0.3121
N448       N    0.9725034416    0.4908401777    0.2719368214         -0.3084
N449       N    0.9730029811    0.5089842909    0.2454511517          0.6757
N450       N    1.0156326463    0.4971739948    0.3042741413          -0.314
H451       H    1.0322913437    0.5141417296    0.2466364735          0.6712
H452       H    1.0220042369    0.4734436612    0.2394209856         -0.2932
H453       H    0.9783698278    0.5321876026    0.2283776280          0.6555
N454       N    1.0373446531    0.4998850257    0.3256130217         -0.3164
C455       C    1.0244710005    0.5001781736    0.3569471094         -0.3166
C456       C    1.0000000000    0.5000000000    0.3776345054         -0.3165
H457       H    0.9761260659    0.4993616226    0.3672784147         -0.3159
H458       H    1.0503697604    0.5006576362    0.3524054633          -0.317
N459       N    0.9161083498    0.5029046596    0.1853053636          0.6811
C410       C    1.0000000000   -0.1223654946    0.5000000000         -0.3164
C411       C    1.0293568060   -0.1352710233    0.5009616606         -0.3155
C412       C    1.0334574862   -0.1670534289    0.4989739218         -0.3173
C413       C    1.0082352881   -0.1867448719    0.4959516778          0.6801
C414       C    0.9790064899   -0.1737017715    0.4954675351          0.6797
C415       C    0.9749471217   -0.1420405265    0.4975034443          0.6815
C416       C    1.0135958677   -0.2227737869    0.4920536027          0.6767
C417       C    1.0591205731   -0.1740708020    0.4996930056         -0.3166
H418       H    1.0500649091   -0.1195046428    0.5031501413         -0.3136
H419       H    0.9507894910   -0.1324877628    0.4967828988          0.6808
H420       H    0.9580174875   -0.1888095616    0.4930164141          0.6775
C421       C    0.9874085209   -0.2462140236    0.5030796926         -0.3137
N422       N    1.0022653771   -0.2781171619    0.5049125256         -0.3121
N423       N    1.0274965584   -0.2719368214    0.5091598223         -0.3084
N424       N    1.0269970189   -0.2454511517    0.4910157091          0.6757
N425       N    0.9843673537   -0.3042741413    0.5028260052          -0.314
H426       H    0.9677086563   -0.2466364735    0.4858582704          0.6712
H427       H    0.9779957631   -0.2394209856    0.5265563388         -0.2932
H428       H    1.0216301722   -0.2283776280    0.4678123974          0.6555
N429       N    0.9626553469   -0.3256130217    0.5001149743         -0.3164
C430       C    0.9755289995   -0.3569471094    0.4998218264         -0.3166
C431       C    1.0000000000   -0.3776345054    0.5000000000         -0.3165
H432       H    1.0238739341   -0.3672784147    0.5006383774         -0.3159
H433       H    0.9496302396   -0.3524054633    0.4993423638          -0.317
N434       N    1.0838916502   -0.1853053636    0.4970953404          0.6811
C385       C    1.0000000000    0.1223654946    0.5000000000         -0.3164
C386       C    1.0010741376    0.1352710233    0.5293529058         -0.3155
C387       C    0.9991021256    0.1670534289    0.5334611721         -0.3173
C388       C    0.9959832620    0.1867448719    0.5082507392          0.6801
C389       C    0.9953871292    0.1737017715    0.4790240107          0.6797
C390       C    0.9974074695    0.1420405265    0.4749568715          0.6815
C391       C    0.9921057552    0.2227737869    0.5136262155          0.6767
C392       C    0.9999195353    0.1740708020    0.5591213154         -0.3166
H393       H    1.0033419478    0.1195046428    0.5500524715         -0.3136
H394       H    0.9965943665    0.1324877628    0.4508021790          0.6808
H395       H    0.9928556044    0.1888095616    0.4580445541          0.6775
C396       C    1.0030314242    0.2462140236    0.4873968131         -0.3137
N397       N    1.0049211696    0.2781171619    0.5022465376         -0.3121
N398       N    1.0092651113    0.2719368214    0.5274612596         -0.3084
N399       N    0.9911192173    0.2454511517    0.5270312451          0.6757
N400       N    1.0027660861    0.3042741413    0.4843566402          -0.314
H401       H    0.9857346461    0.2466364735    0.4677630790          0.6712
H402       H    1.0264718320    0.2394209856    0.4778941708         -0.2932
H403       H    0.9678955122    0.2283776280    0.5217533440          0.6555
N404       N    0.9999718830    0.3256130217    0.4626551805         -0.3164
C405       C    0.9997280641    0.3569471094    0.4755298618         -0.3166
C406       C    1.0000000000    0.3776345054    0.5000000000         -0.3165
H407       H    1.0007298486    0.3672784147    0.5238713128         -0.3159
H408       H    0.9991493710    0.3524054633    0.4496331292          -0.317
N409       N    0.9974168025    0.1853053636    0.5839021639          0.6811
C360       C    0.8776345054   -0.0000000000    0.5000000000         -0.3164
C361       C    0.8647289767   -0.0293521412    0.4989051675         -0.3155
C362       C    0.8329465711   -0.0333036858    0.4966353704         -0.3173
C363       C    0.8132551281   -0.0079318367    0.4953853658          0.6801
C364       C    0.8262982285    0.0212591978    0.4969475889          0.6797
C365       C    0.8579594735    0.0251661611    0.4992625476          0.6815
C366       C    0.7772262131   -0.0130065239    0.4911217578          0.6767
C367       C    0.8259291980   -0.0589541877    0.4955570103         -0.3166
H368       H    0.8804953572   -0.0501626197    0.4996393099         -0.3136
H369       H    0.8675122372    0.0493149990    0.5002341108          0.6808
H370       H    0.8111904384    0.0423682644    0.4959711050          0.6775
C371       C    0.7537859764    0.0123451271    0.5039531873         -0.3137
N372       N    0.7218828381   -0.0026035608    0.5047419735         -0.3121
N373       N    0.7280631786   -0.0280700896    0.5072133996         -0.3084
N374       N    0.7545488483   -0.0263022061    0.4891487111          0.6757
N375       N    0.6957258587    0.0153965913    0.5039129164          -0.314
H376       H    0.7533635265    0.0332017139    0.4881524015          0.6712
H377       H    0.7605790144    0.0200921210    0.5280309159         -0.2932
H378       H    0.7716223720   -0.0193249458    0.4663777963          0.6555
N379       N    0.6743869783    0.0372450765    0.5027277491         -0.3164
C380       C    0.6430528906    0.0244234891    0.5015345326         -0.3166
C381       C    0.6223654946   -0.0000000000    0.5000000000         -0.3165
H382       H    0.6327215853   -0.0238600872    0.4989663208         -0.3159
H383       H    0.6475945367    0.0502923198    0.5028684170          -0.317
N384       N    0.8146946364   -0.0834827887    0.4912324457          0.6811
C335       C    1.1223654946   -0.0000000000    0.5000000000         -0.3164
C336       C    1.1352710233   -0.0264800077    0.4872895302         -0.3155
C337       C    1.1670534289   -0.0310340061    0.4874562094         -0.3173
C338       C    1.1867448719   -0.0091684030    0.5003863539          0.6801
C339       C    1.1737017715    0.0173868837    0.5126082109          0.6797
C340       C    1.1420405265    0.0219224850    0.5123807977          0.6815
C341       C    1.2227737869   -0.0156453065    0.5017936648          0.6767
C342       C    1.1740708020   -0.0542312525    0.4764562608         -0.3166
H343       H    1.1195046428   -0.0445502754    0.4769415639         -0.3136
H344       H    1.1324877628    0.0437413389    0.5227754079          0.6808
H345       H    1.1888095616    0.0356083921    0.5233097455          0.6775
C346       C    1.2462140236    0.0127648745    0.5022556219         -0.3137
N347       N    1.2781171619   -0.0000936141    0.4945911112         -0.3121
N348       N    1.2719368214   -0.0214737608    0.4805361704         -0.3084
N349       N    1.2454511517   -0.0283283840    0.4973430894          0.6757
N350       N    1.3042741413    0.0154459386    0.5037133430          -0.314
H351       H    1.2466364735    0.0238543463    0.5259555304          0.6712
H352       H    1.2394209856    0.0308402282    0.4845628404         -0.2932
H353       H    1.2283776280   -0.0327671964    0.5207416719          0.6555
N354       N    1.3256130217    0.0342244057    0.5149441088         -0.3164
C355       C    1.3569471094    0.0223242197    0.5100245111         -0.3166
C356       C    1.3776345054   -0.0000000000    0.5000000000         -0.3165
H357       H    1.3672784147   -0.0215923254    0.4897949161         -0.3159
H358       H    1.3524054633    0.0458337194    0.5209001294          -0.317
N359       N    1.1853053636   -0.0779487257    0.4688512893          0.6811
C310       C   -0.0000000000   -0.1223654946    0.0000000000         -0.3164
C311       C   -0.0134757476   -0.1352710233   -0.0260988711         -0.3155
C312       C   -0.0172107651   -0.1670534289   -0.0287096810         -0.3173
C313       C   -0.0075501761   -0.1867448719   -0.0052157189          0.6801
C314       C    0.0062800474   -0.1737017715    0.0205385421          0.6797
C315       C    0.0100369749   -0.1420405265    0.0230897950          0.6815
C316       C   -0.0135673786   -0.2227737869   -0.0079949414          0.6767
C317       C   -0.0290971177   -0.1740708020   -0.0514654656         -0.3166
H318       H   -0.0216630347   -0.1195046428   -0.0452452366         -0.3136
H319       H    0.0211879424   -0.1324877628    0.0445319551          0.6808
H320       H    0.0143750122   -0.1888095616    0.0400582182          0.6775
C321       C    0.0088287339   -0.2462140236    0.0094912228         -0.3137
N322       N    0.0031842054   -0.2781171619   -0.0043732914         -0.3121
N323       N   -0.0054112329   -0.2719368214   -0.0284724713         -0.3084
N324       N   -0.0210083439   -0.2454511517   -0.0191886946          0.6757
N325       N    0.0100902235   -0.3042741413    0.0122700174          -0.314
H326       H    0.0033998748   -0.2466364735    0.0350878931          0.6712
H327       H    0.0339149639   -0.2394209856    0.0062610538         -0.2932
H328       H   -0.0386489280   -0.2283776280   -0.0031884911          0.6555
N329       N    0.0183108344   -0.3256130217    0.0325476524         -0.3164
C330       C    0.0117772941   -0.3569471094    0.0214512693         -0.3166
C331       C   -0.0000000000   -0.3776345054    0.0000000000         -0.3165
H332       H   -0.0110843647   -0.3672784147   -0.0211544112         -0.3159
H333       H    0.0239877696   -0.3524054633    0.0442959609          -0.317
N334       N   -0.0434441825   -0.1853053636   -0.0718251281          0.6811
C285       C   -0.0000000000    0.1223654946   -0.0000000000         -0.3164
C286       C   -0.0042446835    0.1352710233   -0.0290642308         -0.3155
C287       C   -0.0027288916    0.1670534289   -0.0333617951         -0.3173
C288       C    0.0031001686    0.1867448719   -0.0086370040          0.6801
C289       C    0.0068559988    0.1737017715    0.0203535251          0.6797
C290       C    0.0052877114    0.1420405265    0.0246154343          0.6815
C291       C    0.0063731125    0.2227737869   -0.0144005655          0.6767
C292       C   -0.0063186886    0.1740708020   -0.0587827405         -0.3166
H293       H   -0.0087394796    0.1195046428   -0.0493967611         -0.3136
H294       H    0.0087102926    0.1324877628    0.0485402383          0.6808
H295       H    0.0116432530    0.1888095616    0.0409357605          0.6775
C296       C   -0.0016495786    0.2462140236    0.0128572448         -0.3137
N297       N   -0.0051354043    0.2781171619   -0.0017007246         -0.3121
N298       N   -0.0121828105    0.2719368214   -0.0262971899         -0.3084
N299       N    0.0059030334    0.2454511517   -0.0278336256          0.6757
N300       N   -0.0010567621    0.3042741413    0.0158508420          -0.314
H301       H    0.0176705494    0.2466364735    0.0305036240          0.6712
H302       H   -0.0239238276    0.2394209856    0.0248410154         -0.2932
H303       H    0.0295615460    0.2283776280   -0.0251002213          0.6555
N304       N    0.0040697695    0.3256130217    0.0371224098         -0.3164
C305       C    0.0029187335    0.3569471094    0.0242969670         -0.3166
C306       C   -0.0000000000    0.3776345054    0.0000000000         -0.3165
H307       H   -0.0033091458    0.3672784147   -0.0236520995         -0.3159
H308       H    0.0062968224    0.3524054633    0.0499789483          -0.317
N309       N   -0.0065126803    0.1853053636   -0.0836888942          0.6811
C260       C   -0.3776345054   -0.0000000000    0.0000000000         -0.3164
C261       C   -0.3647289767   -0.0284017991    0.0074889688         -0.3155
C262       C   -0.3329465711   -0.0317611369    0.0105681788         -0.3173
C263       C   -0.3132551281   -0.0067303121    0.0062379309          0.6801
C264       C   -0.3262982285    0.0214120425   -0.0016718680          0.6797
C265       C   -0.3579594735    0.0247179996   -0.0047853938          0.6815
C266       C   -0.2772262131   -0.0107494548    0.0115083479          0.6767
C267       C   -0.3259291980   -0.0565545466    0.0172313569         -0.3166
H268       H   -0.3804953572   -0.0488688784    0.0113248062         -0.3136
H269       H   -0.3675122372    0.0480694741   -0.0110158791          0.6808
H270       H   -0.3111904384    0.0422234897   -0.0053365476          0.6775
C271       C   -0.2537859764    0.0111814096   -0.0065578907         -0.3137
N272       N   -0.2218828381   -0.0035777934   -0.0040576146         -0.3121
N273       N   -0.2280631786   -0.0289681855   -0.0008984969         -0.3084
N274       N   -0.2545488483   -0.0232915459    0.0163419829          0.6757
N275       N   -0.1957258587    0.0141677824   -0.0071860893          -0.314
H276       H   -0.2533635265    0.0349892422    0.0042979444          0.6712
H277       H   -0.2605790144    0.0134738897   -0.0317471238         -0.2932
H278       H   -0.2716223720   -0.0115022245    0.0370351852          0.6555
N279       N   -0.1743869783    0.0357463895   -0.0108088841         -0.3164
C280       C   -0.1430528906    0.0234963271   -0.0068398994         -0.3222
C281       C   -0.1223654946   -0.0000000000    0.0000000000         -0.3165
H282       H   -0.1327215853   -0.0230561292    0.0062279341         -0.3159
H283       H   -0.1475945367    0.0484468832   -0.0138001721          -0.317
N284       N   -0.3146946364   -0.0795431328    0.0268167120          0.6811
C235       C    0.3776345054   -0.0000000000    0.0000000000         -0.3164
C236       C    0.3647289767    0.0289504901    0.0049614487         -0.3155
C237       C    0.3329465711    0.0325676803    0.0077332025         -0.3173
C238       C    0.3132551281    0.0072529664    0.0056216867          0.6801
C239       C    0.3262982285   -0.0214761050    0.0002182162          0.6797
C240       C    0.3579594735   -0.0250431403   -0.0025924162          0.6815
C241       C    0.2772262131    0.0117201626    0.0105181100          0.6767
C242       C    0.3259291980    0.0578511257    0.0121894895         -0.3166
H243       H    0.3804953572    0.0496756583    0.0069819403         -0.3136
H244       H    0.3675122372   -0.0488521770   -0.0067445339          0.6808
H245       H    0.3111904384   -0.0425292495   -0.0016014874          0.6775
C246       C    0.2537859764   -0.0117149545   -0.0055488461         -0.3137
N247       N    0.2218828381    0.0032069773   -0.0043566200         -0.3121
N248       N    0.2280631786    0.0287768410   -0.0034433250         -0.3084
N249       N    0.2545488483    0.0246388419    0.0142296868          0.6757
N250       N    0.1957258587   -0.0147450118   -0.0059119001          -0.314
H251       H    0.2533635265   -0.0344755081    0.0073592616          0.6712
H252       H    0.2605790144   -0.0162144266   -0.0304387572         -0.2932
H253       H    0.2716223720    0.0147155923    0.0358797638          0.6555
N254       N    0.1743869783   -0.0365586574   -0.0076223948         -0.3164
C255       C    0.1430528906   -0.0240069374   -0.0047464267         -0.3166
C256       C    0.1223654946   -0.0000000000    0.0000000000         -0.3165
H257       H    0.1327215853    0.0235146119    0.0041755577         -0.3159
H258       H    0.1475945367   -0.0494730553   -0.0094848323          -0.317
N259       N    0.3146946364    0.0815938066    0.0197153938          0.6811
C210       C   -0.0000000000    0.0000000000   -0.3776345054         -0.3164
C211       C   -0.0009644273    0.0293567152   -0.3647289767         -0.3155
C212       C    0.0010229250    0.0334575828   -0.3329465711         -0.3173
C213       C    0.0040475461    0.0082356696   -0.3132551281          0.6801
C214       C    0.0045344434   -0.0209930829   -0.3262982285          0.6797
C215       C    0.0024989168   -0.0250526429   -0.3579594735          0.6815
C216       C    0.0079451159    0.0135966166   -0.2772262131          0.6767
C217       C    0.0003014226    0.0591206017   -0.3259291980         -0.3166
H218       H   -0.0031548597    0.0500646120   -0.3804953572         -0.3136
H219       H    0.0032217390   -0.0492102056   -0.3675122372          0.6808
H220       H    0.0069875425   -0.0419818541   -0.3111904384          0.6775
C221       C   -0.0030785059   -0.0125917693   -0.2537859764         -0.3137
N222       N   -0.0049127391    0.0022649141   -0.2218828381         -0.3121
N223       N   -0.0091624136    0.0274956950   -0.2280631786         -0.3084
N224       N    0.0089817466    0.0269978655   -0.2545488483          0.6757
N225       N   -0.0028245319   -0.0156329126   -0.1957258587          -0.314
H226       H    0.0141447728   -0.0322900108   -0.2533635265          0.6712
H227       H   -0.0265542649   -0.0220067396   -0.2605790144         -0.2932
H228       H    0.0321855639    0.0216332056   -0.2716223720          0.6555
N229       N   -0.0001114547   -0.0373446638   -0.1743869783         -0.3164
C230       C    0.0001804799   -0.0244709836   -0.1430528906         -0.3166
C231       C   -0.0000000000    0.0000000000   -0.1223654946         -0.3165
H232       H   -0.0006406274    0.0238738738   -0.1327215853         -0.3159
H233       H    0.0006623832   -0.0503696982   -0.1475945367          -0.317
N234       N    0.0028967532    0.0838919236   -0.3146946364          0.6811
C185       C   -0.0000000000    0.0000000000    0.3776345054         -0.3164
C186       C   -0.0287518809   -0.0060063463    0.3647289767         -0.3155
C187       C   -0.0322663485   -0.0089072430    0.3329465711         -0.3173
C188       C   -0.0070446785   -0.0058805941    0.3132551281          0.6801
C189       C    0.0214699255    0.0005594676    0.3262982285          0.6797
C190       C    0.0249328635    0.0034974017    0.3579594735          0.6815
C191       C   -0.0113316713   -0.0109355418    0.2772262131          0.6767
C192       C   -0.0573718782   -0.0142759937    0.3259291980         -0.3166
H193       H   -0.0493903096   -0.0087758664    0.3804953572         -0.3136
H194       H    0.0485759635    0.0085088016    0.3675122372          0.6808
H195       H    0.0424433850    0.0031402058    0.3111904384          0.6775
C196       C    0.0115063785    0.0059693472    0.2537859764         -0.3137
N197       N   -0.0033626059    0.0042376554    0.2218828381         -0.3121
N198       N   -0.0288826398    0.0023992041    0.2280631786         -0.3084
N199       N   -0.0241075036   -0.0151124051    0.2545488483          0.6757
N200       N    0.0145213049    0.0064418663    0.1957258587          -0.314
H201       H    0.0347193471   -0.0061062536    0.2533635265          0.6712
H202       H    0.0151017632    0.0310058433    0.2605790144         -0.2932
H203       H   -0.0134069204   -0.0363890175    0.2716223720          0.6555
N204       N    0.0362587209    0.0089410009    0.1743869783         -0.3164
C205       C    0.0238193541    0.0056124842    0.1430528906         -0.3166
C206       C   -0.0000000000   -0.0000000000    0.1223654946         -0.3165
H207       H   -0.0233480197   -0.0050241649    0.1327215853         -0.3159
H208       H    0.0490972225    0.0112697823    0.1475945367          -0.317
N209       N   -0.0808265182   -0.0226565658    0.3146946364          0.6811
loop_
_geom_bond_atom_site_label_1
_geom_bond_atom_site_label_2
_geom_bond_distance
_geom_bond_site_symmetry_2
_ccdc_geom_bond_type
Zn1          O5 1.942       .   S
Zn1          O6 1.922       .   S
Zn1         O10 1.922       .   S
Zn1         O17 1.922       .   S
Zn2          O5 1.942       .   S
Zn2          O7 1.922       .   S
Zn2          O9 1.922       .   S
Zn2         O13 1.922       .   S
Zn3          O5 1.942       .   S
Zn3          O8 1.922       .   S
Zn3         O11 1.922       .   S
Zn3         O14 1.922       .   S
Zn4          O5 1.942       .   S
Zn4         O12 1.922       .   S
Zn4         O15 1.922       .   S
Zn4         O16 1.922       .   S
O6          C18 1.304       .   A
O7          C19 1.304       .   A
O8          C20 1.304       .   A
O9          C18 1.304       .   A
O10         C20 1.304       .   A
O11         C19 1.304       .   A
O12         C21 1.304       .   A
O13         C22 1.304       .   A
O14         C21 1.304       .   A
O15         C22 1.304       .   A
O16         C23 1.304       .   A
O17         C23 1.304       .   A
C18        C206 1.540       .   S
C19        C256 1.540       .   S
C20        C310 1.540       .   S
C21        C231 1.540       .   S
C22        C285 1.540       .   S
C23        C281 1.540       .   S
Zn24        O28 1.942       .   S
Zn24        O29 1.922       .   S
Zn24        O33 1.922       .   S
Zn24        O40 1.922       .   S
Zn25        O28 1.942       .   S
Zn25        O30 1.922       .   S
Zn25        O32 1.922       .   S
Zn25        O36 1.922       .   S
Zn26        O28 1.942       .   S
Zn26        O31 1.922       .   S
Zn26        O34 1.922       .   S
Zn26        O37 1.922       .   S
Zn27        O28 1.942       .   S
Zn27        O35 1.922       .   S
Zn27        O38 1.922       .   S
Zn27        O39 1.922       .   S
O29         C41 1.304       .   A
O30         C42 1.304       .   A
O31         C43 1.304       .   A
O32         C41 1.304       .   A
O33         C43 1.304       .   A
O34         C42 1.304       .   A
O35         C44 1.304       .   A
O36         C45 1.304       .   A
O37         C44 1.304       .   A
O38         C45 1.304       .   A
O39         C46 1.304       .   A
O40         C46 1.304       .   A
C41        C185 1.540   1_655   S
C42        C335 1.540       .   S
C43        C385 1.540       .   S
C44        C210 1.540   1_656   S
C45        C410 1.540       .   S
C46        C360 1.540       .   S
Zn47        O51 1.942       .   S
Zn47        O52 1.922       .   S
Zn47        O56 1.922       .   S
Zn47        O63 1.922       .   S
Zn48        O51 1.942       .   S
Zn48        O53 1.922       .   S
Zn48        O55 1.922       .   S
Zn48        O59 1.922       .   S
Zn49        O51 1.942       .   S
Zn49        O54 1.922       .   S
Zn49        O57 1.922       .   S
Zn49        O60 1.922       .   S
Zn50        O51 1.942       .   S
Zn50        O58 1.922       .   S
Zn50        O61 1.922       .   S
Zn50        O62 1.922       .   S
O52         C64 1.304       .   A
O53         C65 1.304       .   A
O54         C66 1.304       .   A
O55         C64 1.304       .   A
O56         C66 1.304       .   A
O57         C65 1.304       .   A
O58         C67 1.304       .   A
O59         C68 1.304       .   A
O60         C67 1.304       .   A
O61         C68 1.304       .   A
O62         C69 1.304       .   A
O63         C69 1.304       .   A
C64        C306 1.540   1_655   S
C65        C435 1.540       .   S
C66        C485 1.540       .   S
C67        C331 1.540   1_665   S
C68        C531 1.540       .   S
C69        C460 1.540       .   S
Zn70        O74 1.942       .   S
Zn70        O75 1.922       .   S
Zn70        O79 1.922       .   S
Zn70        O86 1.922       .   S
Zn71        O74 1.942       .   S
Zn71        O76 1.922       .   S
Zn71        O78 1.922       .   S
Zn71        O82 1.922       .   S
Zn72        O74 1.942       .   S
Zn72        O77 1.922       .   S
Zn72        O80 1.922       .   S
Zn72        O83 1.922       .   S
Zn73        O74 1.942       .   S
Zn73        O81 1.922       .   S
Zn73        O84 1.922       .   S
Zn73        O85 1.922       .   S
O75         C87 1.304       .   A
O76         C88 1.304       .   A
O77         C89 1.304       .   A
O78         C87 1.304       .   A
O79         C89 1.304       .   A
O80         C88 1.304       .   A
O81         C90 1.304       .   A
O82         C91 1.304       .   A
O83         C90 1.304       .   A
O84         C91 1.304       .   A
O85         C92 1.304       .   A
O86         C92 1.304       .   A
C87        C406 1.540       .   S
C88        C456 1.540       .   S
C89        C560 1.540       .   S
C90        C431 1.540   1_565   S
C91        C535 1.540       .   S
C92        C481 1.540   1_556   S
Zn93        O97 1.942       .   S
Zn93        O98 1.922       .   S
Zn93       O102 1.922       .   S
Zn93       O109 1.922       .   S
Zn94        O97 1.942       .   S
Zn94        O99 1.922       .   S
Zn94       O101 1.922       .   S
Zn94       O105 1.922       .   S
Zn95        O97 1.942       .   S
Zn95       O100 1.922       .   S
Zn95       O103 1.922       .   S
Zn95       O106 1.922       .   S
Zn96        O97 1.942       .   S
Zn96       O104 1.922       .   S
Zn96       O107 1.922       .   S
Zn96       O108 1.922       .   S
O98        C110 1.304       .   A
O99        C111 1.304       .   A
O100       C112 1.304       .   A
O101       C110 1.304       .   A
O102       C112 1.304       .   A
O103       C111 1.304       .   A
O104       C113 1.304       .   A
O105       C114 1.304       .   A
O106       C113 1.304       .   A
O107       C114 1.304       .   A
O108       C115 1.304       .   A
O109       C115 1.304       .   A
C110       C235 1.540   1_565   S
C111       C585 1.540       .   S
C112       C681 1.540       .   S
C113       C260 1.540   1_665   S
C114       C635 1.540       .   S
C115       C610 1.540       .   S
Zn116      O120 1.942       .   S
Zn116      O121 1.922       .   S
Zn116      O125 1.922       .   S
Zn116      O132 1.922       .   S
Zn117      O120 1.942       .   S
Zn117      O122 1.922       .   S
Zn117      O124 1.922       .   S
Zn117      O128 1.922       .   S
Zn118      O120 1.942       .   S
Zn118      O123 1.922       .   S
Zn118      O126 1.922       .   S
Zn118      O129 1.922       .   S
Zn119      O120 1.942       .   S
Zn119      O127 1.922       .   S
Zn119      O130 1.922       .   S
Zn119      O131 1.922       .   S
O121       C133 1.304       .   A
O122       C134 1.304       .   A
O123       C135 1.304       .   A
O124       C133 1.304       .   A
O125       C135 1.304       .   A
O126       C134 1.304       .   A
O127       C136 1.304       .   A
O128       C137 1.304       .   A
O129       C136 1.304       .   A
O130       C137 1.304       .   A
O131       C138 1.304       .   A
O132       C138 1.304       .   A
C133       C685 1.540       .   S
C134       C606 1.540       .   S
C135       C381 1.540   1_565   S
C136       C710 1.540       .   S
C137       C356 1.540   1_465   S
C138       C631 1.540   1_556   S
Zn139      O143 1.942       .   S
Zn139      O144 1.922       .   S
Zn139      O148 1.922       .   S
Zn139      O155 1.922       .   S
Zn140      O143 1.942       .   S
Zn140      O145 1.922       .   S
Zn140      O147 1.922       .   S
Zn140      O151 1.922       .   S
Zn141      O143 1.942       .   S
Zn141      O146 1.922       .   S
Zn141      O149 1.922       .   S
Zn141      O152 1.922       .   S
Zn142      O143 1.942       .   S
Zn142      O150 1.922       .   S
Zn142      O153 1.922       .   S
Zn142      O154 1.922       .   S
O144       C156 1.304       .   A
O145       C157 1.304       .   A
O146       C158 1.304       .   A
O147       C156 1.304       .   A
O148       C158 1.304       .   A
O149       C157 1.304       .   A
O150       C159 1.304       .   A
O151       C160 1.304       .   A
O152       C159 1.304       .   A
O153       C160 1.304       .   A
O154       C161 1.304       .   A
O155       C161 1.304       .   A
C156       C506 1.540   1_455   S
C157       C656 1.540   1_545   S
C158       C760 1.540       .   S
C159       C510 1.540       .   S
C160       C735 1.540       .   S
C161       C660 1.540       .   S
Zn162      O166 1.942       .   S
Zn162      O167 1.922       .   S
Zn162      O171 1.922       .   S
Zn162      O178 1.922       .   S
Zn163      O166 1.942       .   S
Zn163      O168 1.922       .   S
Zn163      O170 1.922       .   S
Zn163      O174 1.922       .   S
Zn164      O166 1.942       .   S
Zn164      O169 1.922       .   S
Zn164      O172 1.922       .   S
Zn164      O175 1.922       .   S
Zn165      O166 1.942       .   S
Zn165      O173 1.922       .   S
Zn165      O176 1.922       .   S
Zn165      O177 1.922       .   S
O167       C179 1.304       .   A
O168       C180 1.304       .   A
O169       C181 1.304       .   A
O170       C179 1.304       .   A
O171       C181 1.304       .   A
O172       C180 1.304       .   A
O173       C182 1.304       .   A
O174       C183 1.304       .   A
O175       C182 1.304       .   A
O176       C183 1.304       .   A
O177       C184 1.304       .   A
O178       C184 1.304       .   A
C179       C556 1.540   1_455   S
C180       C706 1.540   1_545   S
C181       C756 1.540       .   S
C182       C581 1.540       .   S
C183       C781 1.540   1_556   S
C184       C731 1.540       .   S
C760       C761 0.028       .   A
C760       C765 0.028       .   A
C761       C762 0.028       .   A
C761       H768 0.023       .   A
C762       C763 0.028       .   A
C762       C767 0.023       .   A
C763       C764 0.028       .   A
C763       C766 0.032       .   A
C764       C765 0.028       .   A
C764       H770 0.023       .   A
C765       H769 0.023       .   A
C766       C771 0.032       .   A
C766       N774 0.023       .   A
C766       H778 0.023       .   A
C767       N784 0.024       .   A
C771       N772 0.031       .   A
C771       H776 0.023       .   A
C771       H777 0.023       .   A
N772       N773 0.023       .   A
N772       N775 0.028       .   A
N773       N774 0.028       .   A
N775       N779 0.027       .   A
N779       C780 0.030       .   A
C780       C781 0.028       .   A
C780       H783 0.023       .   A
C781       H782 0.023       .   A
C735       C736 0.028       .   A
C735       C740 0.028       .   A
C736       C737 0.028       .   A
C736       H743 0.023       .   A
C737       C738 0.028       .   A
C737       C742 0.023       .   A
C738       C739 0.028       .   A
C738       C741 0.032       .   A
C739       C740 0.028       .   A
C739       H745 0.023       .   A
C740       H744 0.023       .   A
C741       C746 0.032       .   A
C741       N749 0.023       .   A
C741       H753 0.023       .   A
C742       N759 0.024       .   A
C746       N747 0.031       .   A
C746       H751 0.023       .   A
C746       H752 0.023       .   A
N747       N748 0.023       .   A
N747       N750 0.028       .   A
N748       N749 0.028       .   A
N750       N754 0.027       .   A
N754       C755 0.030       .   A
C755       C756 0.028       .   A
C755       H758 0.023       .   A
C756       H757 0.023       .   A
C710       C711 0.028       .   A
C710       C715 0.028       .   A
C711       C712 0.028       .   A
C711       H718 0.023       .   A
C712       C713 0.028       .   A
C712       C717 0.023       .   A
C713       C714 0.028       .   A
C713       C716 0.032       .   A
C714       C715 0.028       .   A
C714       H720 0.023       .   A
C715       H719 0.023       .   A
C716       C721 0.032       .   A
C716       N724 0.023       .   A
C716       H728 0.023       .   A
C717       N734 0.024       .   A
C721       N722 0.031       .   A
C721       H726 0.023       .   A
C721       H727 0.023       .   A
N722       N723 0.023       .   A
N722       N725 0.028       .   A
N723       N724 0.028       .   A
N725       N729 0.027       .   A
N729       C730 0.030       .   A
C730       C731 0.028       .   A
C730       H733 0.023       .   A
C731       H732 0.023       .   A
C685       C686 0.028       .   A
C685       C690 0.028       .   A
C686       C687 0.028       .   A
C686       H693 0.023       .   A
C687       C688 0.028       .   A
C687       C692 0.023       .   A
C688       C689 0.028       .   A
C688       C691 0.032       .   A
C689       C690 0.028       .   A
C689       H695 0.023       .   A
C690       H694 0.023       .   A
C691       C696 0.032       .   A
C691       N699 0.023       .   A
C691       H703 0.023       .   A
C692       N709 0.024       .   A
C696       N697 0.031       .   A
C696       H701 0.023       .   A
C696       H702 0.023       .   A
N697       N698 0.023       .   A
N697       N700 0.028       .   A
N698       N699 0.028       .   A
N700       N704 0.027       .   A
N704       C705 0.030       .   A
C705       C706 0.028       .   A
C705       H708 0.023       .   A
C706       H707 0.023       .   A
C660       C661 0.028       .   A
C660       C665 0.028       .   A
C661       C662 0.028       .   A
C661       H668 0.023       .   A
C662       C663 0.028       .   A
C662       C667 0.023       .   A
C663       C664 0.028       .   A
C663       C666 0.032       .   A
C664       C665 0.028       .   A
C664       H670 0.023       .   A
C665       H669 0.023       .   A
C666       C671 0.032       .   A
C666       N674 0.023       .   A
C666       H678 0.023       .   A
C667       N684 0.024       .   A
C671       N672 0.031       .   A
C671       H676 0.023       .   A
C671       H677 0.023       .   A
N672       N673 0.023       .   A
N672       N675 0.028       .   A
N673       N674 0.028       .   A
N675       N679 0.027       .   A
N679       C680 0.030       .   A
C680       C681 0.028       .   A
C680       H683 0.023       .   A
C681       H682 0.023       .   A
C635       C636 0.028       .   A
C635       C640 0.028       .   A
C636       C637 0.028       .   A
C636       H643 0.023       .   A
C637       C638 0.028       .   A
C637       C642 0.023       .   A
C638       C639 0.028       .   A
C638       C641 0.032       .   A
C639       C640 0.028       .   A
C639       H645 0.023       .   A
C640       H644 0.023       .   A
C641       C646 0.032       .   A
C641       N649 0.023       .   A
C641       H653 0.023       .   A
C642       N659 0.024       .   A
C646       N647 0.031       .   A
C646       H651 0.023       .   A
C646       H652 0.023       .   A
N647       N648 0.023       .   A
N647       N650 0.028       .   A
N648       N649 0.028       .   A
N650       N654 0.027       .   A
N654       C655 0.030       .   A
C655       C656 0.028       .   A
C655       H658 0.023       .   A
C656       H657 0.023       .   A
C610       C611 0.028       .   A
C610       C615 0.028       .   A
C611       C612 0.028       .   A
C611       H618 0.023       .   A
C612       C613 0.028       .   A
C612       C617 0.023       .   A
C613       C614 0.028       .   A
C613       C616 0.032       .   A
C614       C615 0.028       .   A
C614       H620 0.023       .   A
C615       H619 0.023       .   A
C616       C621 0.032       .   A
C616       N624 0.023       .   A
C616       H628 0.023       .   A
C617       N634 0.024       .   A
C621       N622 0.031       .   A
C621       H626 0.023       .   A
C621       H627 0.023       .   A
N622       N623 0.023       .   A
N622       N625 0.028       .   A
N623       N624 0.028       .   A
N625       N629 0.027       .   A
N629       C630 0.030       .   A
C630       C631 0.028       .   A
C630       H633 0.023       .   A
C631       H632 0.023       .   A
C585       C586 0.028       .   A
C585       C590 0.028       .   A
C586       C587 0.028       .   A
C586       H593 0.023       .   A
C587       C588 0.028       .   A
C587       C592 0.023       .   A
C588       C589 0.028       .   A
C588       C591 0.032       .   A
C589       C590 0.028       .   A
C589       H595 0.023       .   A
C590       H594 0.023       .   A
C591       C596 0.032       .   A
C591       N599 0.023       .   A
C591       H603 0.023       .   A
C592       N609 0.024       .   A
C596       N597 0.031       .   A
C596       H601 0.023       .   A
C596       H602 0.023       .   A
N597       N598 0.023       .   A
N597       N600 0.028       .   A
N598       N599 0.028       .   A
N600       N604 0.027       .   A
N604       C605 0.030       .   A
C605       C606 0.028       .   A
C605       H608 0.023       .   A
C606       H607 0.023       .   A
C560       C561 0.028       .   A
C560       C565 0.028       .   A
C561       C562 0.028       .   A
C561       H568 0.023       .   A
C562       C563 0.028       .   A
C562       C567 0.023       .   A
C563       C564 0.028       .   A
C563       C566 0.032       .   A
C564       C565 0.028       .   A
C564       H570 0.023       .   A
C565       H569 0.023       .   A
C566       C571 0.032       .   A
C566       N574 0.023       .   A
C566       H578 0.023       .   A
C567       N584 0.024       .   A
C571       N572 0.031       .   A
C571       H576 0.023       .   A
C571       H577 0.023       .   A
N572       N573 0.023       .   A
N572       N575 0.028       .   A
N573       N574 0.028       .   A
N575       N579 0.027       .   A
N579       C580 0.030       .   A
C580       C581 0.028       .   A
C580       H583 0.023       .   A
C581       H582 0.023       .   A
C535       C536 0.028       .   A
C535       C540 0.028       .   A
C536       C537 0.028       .   A
C536       H543 0.023       .   A
C537       C538 0.028       .   A
C537       C542 0.023       .   A
C538       C539 0.028       .   A
C538       C541 0.032       .   A
C539       C540 0.028       .   A
C539       H545 0.023       .   A
C540       H544 0.023       .   A
C541       C546 0.032       .   A
C541       N549 0.023       .   A
C541       H553 0.023       .   A
C542       N559 0.024       .   A
C546       N547 0.031       .   A
C546       H551 0.023       .   A
C546       H552 0.023       .   A
N547       N548 0.023       .   A
N547       N550 0.028       .   A
N548       N549 0.028       .   A
N550       N554 0.027       .   A
N554       C555 0.030       .   A
C555       C556 0.028       .   A
C555       H558 0.023       .   A
C556       H557 0.023       .   A
C510       C511 0.028       .   A
C510       C515 0.028       .   A
C511       C512 0.028       .   A
C511       H518 0.023       .   A
C512       C513 0.028       .   A
C512       C517 0.023       .   A
C513       C514 0.028       .   A
C513       C516 0.032       .   A
C514       C515 0.028       .   A
C514       H520 0.023       .   A
C515       H519 0.023       .   A
C516       C521 0.032       .   A
C516       N524 0.023       .   A
C516       H528 0.023       .   A
C517       N534 0.024       .   A
C521       N522 0.031       .   A
C521       H526 0.023       .   A
C521       H527 0.023       .   A
N522       N523 0.023       .   A
N522       N525 0.028       .   A
N523       N524 0.028       .   A
N525       N529 0.027       .   A
N529       C530 0.030       .   A
C530       C531 0.028       .   A
C530       H533 0.023       .   A
C531       H532 0.023       .   A
C485       C486 0.028       .   A
C485       C490 0.028       .   A
C486       C487 0.028       .   A
C486       H493 0.023       .   A
C487       C488 0.028       .   A
C487       C492 0.023       .   A
C488       C489 0.028       .   A
C488       C491 0.032       .   A
C489       C490 0.028       .   A
C489       H495 0.023       .   A
C490       H494 0.023       .   A
C491       C496 0.032       .   A
C491       N499 0.023       .   A
C491       H503 0.023       .   A
C492       N509 0.024       .   A
C496       N497 0.031       .   A
C496       H501 0.023       .   A
C496       H502 0.023       .   A
N497       N498 0.023       .   A
N497       N500 0.028       .   A
N498       N499 0.028       .   A
N500       N504 0.027       .   A
N504       C505 0.030       .   A
C505       C506 0.028       .   A
C505       H508 0.023       .   A
C506       H507 0.023       .   A
C460       C461 0.028       .   A
C460       C465 0.028       .   A
C461       C462 0.028       .   A
C461       H468 0.023       .   A
C462       C463 0.028       .   A
C462       C467 0.023       .   A
C463       C464 0.028       .   A
C463       C466 0.032       .   A
C464       C465 0.028       .   A
C464       H470 0.023       .   A
C465       H469 0.023       .   A
C466       C471 0.032       .   A
C466       N474 0.023       .   A
C466       H478 0.023       .   A
C467       N484 0.024       .   A
C471       N472 0.031       .   A
C471       H476 0.023       .   A
C471       H477 0.023       .   A
N472       N473 0.023       .   A
N472       N475 0.028       .   A
N473       N474 0.028       .   A
N475       N479 0.027       .   A
N479       C480 0.030       .   A
C480       C481 0.028       .   A
C480       H483 0.023       .   A
C481       H482 0.023       .   A
C435       C436 0.028       .   A
C435       C440 0.028       .   A
C436       C437 0.028       .   A
C436       H443 0.023       .   A
C437       C438 0.028       .   A
C437       C442 0.023       .   A
C438       C439 0.028       .   A
C438       C441 0.032       .   A
C439       C440 0.028       .   A
C439       H445 0.023       .   A
C440       H444 0.023       .   A
C441       C446 0.032       .   A
C441       N449 0.023       .   A
C441       H453 0.023       .   A
C442       N459 0.024       .   A
C446       N447 0.031       .   A
C446       H451 0.023       .   A
C446       H452 0.023       .   A
N447       N448 0.023       .   A
N447       N450 0.028       .   A
N448       N449 0.028       .   A
N450       N454 0.027       .   A
N454       C455 0.030       .   A
C455       C456 0.028       .   A
C455       H458 0.023       .   A
C456       H457 0.023       .   A
C410       C411 0.028       .   A
C410       C415 0.028       .   A
C411       C412 0.028       .   A
C411       H418 0.023       .   A
C412       C413 0.028       .   A
C412       C417 0.023       .   A
C413       C414 0.028       .   A
C413       C416 0.032       .   A
C414       C415 0.028       .   A
C414       H420 0.023       .   A
C415       H419 0.023       .   A
C416       C421 0.032       .   A
C416       N424 0.023       .   A
C416       H428 0.023       .   A
C417       N434 0.024       .   A
C421       N422 0.031       .   A
C421       H426 0.023       .   A
C421       H427 0.023       .   A
N422       N423 0.023       .   A
N422       N425 0.028       .   A
N423       N424 0.028       .   A
N425       N429 0.027       .   A
N429       C430 0.030       .   A
C430       C431 0.028       .   A
C430       H433 0.023       .   A
C431       H432 0.023       .   A
C385       C386 0.028       .   A
C385       C390 0.028       .   A
C386       C387 0.028       .   A
C386       H393 0.023       .   A
C387       C388 0.028       .   A
C387       C392 0.023       .   A
C388       C389 0.028       .   A
C388       C391 0.032       .   A
C389       C390 0.028       .   A
C389       H395 0.023       .   A
C390       H394 0.023       .   A
C391       C396 0.032       .   A
C391       N399 0.023       .   A
C391       H403 0.023       .   A
C392       N409 0.024       .   A
C396       N397 0.031       .   A
C396       H401 0.023       .   A
C396       H402 0.023       .   A
N397       N398 0.023       .   A
N397       N400 0.028       .   A
N398       N399 0.028       .   A
N400       N404 0.027       .   A
N404       C405 0.030       .   A
C405       C406 0.028       .   A
C405       H408 0.023       .   A
C406       H407 0.023       .   A
C360       C361 0.028       .   A
C360       C365 0.028       .   A
C361       C362 0.028       .   A
C361       H368 0.023       .   A
C362       C363 0.028       .   A
C362       C367 0.023       .   A
C363       C364 0.028       .   A
C363       C366 0.032       .   A
C364       C365 0.028       .   A
C364       H370 0.023       .   A
C365       H369 0.023       .   A
C366       C371 0.032       .   A
C366       N374 0.023       .   A
C366       H378 0.023       .   A
C367       N384 0.024       .   A
C371       N372 0.031       .   A
C371       H376 0.023       .   A
C371       H377 0.023       .   A
N372       N373 0.023       .   A
N372       N375 0.028       .   A
N373       N374 0.028       .   A
N375       N379 0.027       .   A
N379       C380 0.030       .   A
C380       C381 0.028       .   A
C380       H383 0.023       .   A
C381       H382 0.023       .   A
C335       C336 0.028       .   A
C335       C340 0.028       .   A
C336       C337 0.028       .   A
C336       H343 0.023       .   A
C337       C338 0.028       .   A
C337       C342 0.023       .   A
C338       C339 0.028       .   A
C338       C341 0.032       .   A
C339       C340 0.028       .   A
C339       H345 0.023       .   A
C340       H344 0.023       .   A
C341       C346 0.032       .   A
C341       N349 0.023       .   A
C341       H353 0.023       .   A
C342       N359 0.024       .   A
C346       N347 0.031       .   A
C346       H351 0.023       .   A
C346       H352 0.023       .   A
N347       N348 0.023       .   A
N347       N350 0.028       .   A
N348       N349 0.028       .   A
N350       N354 0.027       .   A
N354       C355 0.030       .   A
C355       C356 0.028       .   A
C355       H358 0.023       .   A
C356       H357 0.023       .   A
C310       C311 0.028       .   A
C310       C315 0.028       .   A
C311       C312 0.028       .   A
C311       H318 0.023       .   A
C312       C313 0.028       .   A
C312       C317 0.023       .   A
C313       C314 0.028       .   A
C313       C316 0.032       .   A
C314       C315 0.028       .   A
C314       H320 0.023       .   A
C315       H319 0.023       .   A
C316       C321 0.032       .   A
C316       N324 0.023       .   A
C316       H328 0.023       .   A
C317       N334 0.024       .   A
C321       N322 0.031       .   A
C321       H326 0.023       .   A
C321       H327 0.023       .   A
N322       N323 0.023       .   A
N322       N325 0.028       .   A
N323       N324 0.028       .   A
N325       N329 0.027       .   A
N329       C330 0.030       .   A
C330       C331 0.028       .   A
C330       H333 0.023       .   A
C331       H332 0.023       .   A
C285       C286 0.028       .   A
C285       C290 0.028       .   A
C286       C287 0.028       .   A
C286       H293 0.023       .   A
C287       C288 0.028       .   A
C287       C292 0.023       .   A
C288       C289 0.028       .   A
C288       C291 0.032       .   A
C289       C290 0.028       .   A
C289       H295 0.023       .   A
C290       H294 0.023       .   A
C291       C296 0.032       .   A
C291       N299 0.023       .   A
C291       H303 0.023       .   A
C292       N309 0.024       .   A
C296       N297 0.031       .   A
C296       H301 0.023       .   A
C296       H302 0.023       .   A
N297       N298 0.023       .   A
N297       N300 0.028       .   A
N298       N299 0.028       .   A
N300       N304 0.027       .   A
N304       C305 0.030       .   A
C305       C306 0.028       .   A
C305       H308 0.023       .   A
C306       H307 0.023       .   A
C260       C261 0.028       .   A
C260       C265 0.028       .   A
C261       C262 0.028       .   A
C261       H268 0.023       .   A
C262       C263 0.028       .   A
C262       C267 0.023       .   A
C263       C264 0.028       .   A
C263       C266 0.032       .   A
C264       C265 0.028       .   A
C264       H270 0.023       .   A
C265       H269 0.023       .   A
C266       C271 0.032       .   A
C266       N274 0.023       .   A
C266       H278 0.023       .   A
C267       N284 0.024       .   A
C271       N272 0.031       .   A
C271       H276 0.023       .   A
C271       H277 0.023       .   A
N272       N273 0.023       .   A
N272       N275 0.028       .   A
N273       N274 0.028       .   A
N275       N279 0.027       .   A
N279       C280 0.030       .   A
C280       C281 0.028       .   A
C280       H283 0.023       .   A
C281       H282 0.023       .   A
C235       C236 0.028       .   A
C235       C240 0.028       .   A
C236       C237 0.028       .   A
C236       H243 0.023       .   A
C237       C238 0.028       .   A
C237       C242 0.023       .   A
C238       C239 0.028       .   A
C238       C241 0.032       .   A
C239       C240 0.028       .   A
C239       H245 0.023       .   A
C240       H244 0.023       .   A
C241       C246 0.032       .   A
C241       N249 0.023       .   A
C241       H253 0.023       .   A
C242       N259 0.024       .   A
C246       N247 0.031       .   A
C246       H251 0.023       .   A
C246       H252 0.023       .   A
N247       N248 0.023       .   A
N247       N250 0.028       .   A
N248       N249 0.028       .   A
N250       N254 0.027       .   A
N254       C255 0.030       .   A
C255       C256 0.028       .   A
C255       H258 0.023       .   A
C256       H257 0.023       .   A
C210       C211 0.028       .   A
C210       C215 0.028       .   A
C211       C212 0.028       .   A
C211       H218 0.023       .   A
C212       C213 0.028       .   A
C212       C217 0.023       .   A
C213       C214 0.028       .   A
C213       C216 0.032       .   A
C214       C215 0.028       .   A
C214       H220 0.023       .   A
C215       H219 0.023       .   A
C216       C221 0.032       .   A
C216       N224 0.023       .   A
C216       H228 0.023       .   A
C217       N234 0.024       .   A
C221       N222 0.031       .   A
C221       H226 0.023       .   A
C221       H227 0.023       .   A
N222       N223 0.023       .   A
N222       N225 0.028       .   A
N223       N224 0.028       .   A
N225       N229 0.027       .   A
N229       C230 0.030       .   A
C230       C231 0.028       .   A
C230       H233 0.023       .   A
C231       H232 0.023       .   A
C185       C186 0.028       .   A
C185       C190 0.028       .   A
C186       C187 0.028       .   A
C186       H193 0.023       .   A
C187       C188 0.028       .   A
C187       C192 0.023       .   A
C188       C189 0.028       .   A
C188       C191 0.032       .   A
C189       C190 0.028       .   A
C189       H195 0.023       .   A
C190       H194 0.023       .   A
C191       C196 0.032       .   A
C191       N199 0.023       .   A
C191       H203 0.023       .   A
C192       N209 0.024       .   A
C196       N197 0.031       .   A
C196       H201 0.023       .   A
C196       H202 0.023       .   A
N197       N198 0.023       .   A
N197       N200 0.028       .   A
N198       N199 0.028       .   A
N200       N204 0.027       .   A
N204       C205 0.030       .   A
C205       C206 0.028       .   A
C205       H208 0.023       .   A
C206       H207 0.023       .   A
