data_pcu_v1-6c_Zn_1_Ch_1-39_fer_tobacco
_audit_creation_date              2021-04-07
_audit_creation_method            'tobacco_3.0'
_symmetry_space_group_name_H-M    'P1'
_symmetry_Int_Tables_number       1
_symmetry_cell_setting            triclinic
loop_
_symmetry_equiv_pos_as_xyz
  x,y,z
_cell_length_a                    44.62154923576833
_cell_length_b                    44.62154923576833
_cell_length_c                    44.62154923576833
_cell_angle_alpha                 90.0
_cell_angle_beta                  90.0
_cell_angle_gamma                 90.0
loop_
_atom_site_label
_atom_site_type_symbol
_atom_site_fract_x
_atom_site_fract_y
_atom_site_fract_z
_atom_site_charge
Zn1       Zn   -0.0251268730   -0.0251268730    0.0251268730          1.4972
Zn2       Zn    0.0251268730    0.0251268730    0.0251268730          1.4936
Zn3       Zn    0.0251268730   -0.0251268730   -0.0251268730          1.4911
Zn4       Zn   -0.0251268730    0.0251268730   -0.0251268730          1.4948
O5         O    0.0000000000    0.0000000000    0.0000000000         -2.2156
O6         O   -0.0184664140   -0.0184664140    0.0671558933          -1.122
O7         O    0.0671558933    0.0184664140    0.0184664140         -1.1202
O8         O    0.0184664140   -0.0671558933   -0.0184664140         -1.1153
O9         O    0.0184664140    0.0184664140    0.0671558933         -1.1221
O10        O   -0.0184664140   -0.0671558933    0.0184664140         -1.1181
O11        O    0.0671558933   -0.0184664140   -0.0184664140         -1.1239
O12        O   -0.0184664140    0.0184664140   -0.0671558933         -1.1178
O13        O    0.0184664140    0.0671558933    0.0184664140         -1.1254
O14        O    0.0184664140   -0.0184664140   -0.0671558933         -1.1193
O15        O   -0.0184664140    0.0671558933   -0.0184664140          -1.124
O16        O   -0.0671558933    0.0184664140   -0.0184664140         -1.1231
O17        O   -0.0671558933   -0.0184664140    0.0184664140          -1.121
C18        C   -0.0000000000   -0.0000000000    0.0802930436          0.3969
C19        C    0.0802930436   -0.0000000000   -0.0000000000          0.4018
C20        C   -0.0000000000   -0.0802930436    0.0000000000          0.3914
C21        C    0.0000000000    0.0000000000   -0.0802930436          0.3952
C22        C    0.0000000000    0.0802930436   -0.0000000000          0.4066
C23        C   -0.0802930436    0.0000000000    0.0000000000          0.3971
Zn24      Zn    0.9748731270    0.0251268730    0.4748731270          1.4972
Zn25      Zn    1.0251268730   -0.0251268730    0.4748731270          1.4936
Zn26      Zn    1.0251268730    0.0251268730    0.5251268730          1.4911
Zn27      Zn    0.9748731270   -0.0251268730    0.5251268730          1.4948
O28        O    1.0000000000    0.0000000000    0.5000000000         -2.2156
O29        O    0.9815335860    0.0184664140    0.4328441067          -1.122
O30        O    1.0671558933   -0.0184664140    0.4815335860         -1.1202
O31        O    1.0184664140    0.0671558933    0.5184664140         -1.1153
O32        O    1.0184664140   -0.0184664140    0.4328441067         -1.1221
O33        O    0.9815335860    0.0671558933    0.4815335860         -1.1181
O34        O    1.0671558933    0.0184664140    0.5184664140         -1.1239
O35        O    0.9815335860   -0.0184664140    0.5671558933         -1.1178
O36        O    1.0184664140   -0.0671558933    0.4815335860         -1.1254
O37        O    1.0184664140    0.0184664140    0.5671558933         -1.1193
O38        O    0.9815335860   -0.0671558933    0.5184664140          -1.124
O39        O    0.9328441067   -0.0184664140    0.5184664140         -1.1231
O40        O    0.9328441067    0.0184664140    0.4815335860          -1.121
C41        C    1.0000000000    0.0000000000    0.4197069564          0.3969
C42        C    1.0802930436    0.0000000000    0.5000000000          0.4018
C43        C    1.0000000000    0.0802930436    0.5000000000          0.3914
C44        C    1.0000000000    0.0000000000    0.5802930436          0.3952
C45        C    1.0000000000   -0.0802930436    0.5000000000          0.4066
C46        C    0.9197069564    0.0000000000    0.5000000000          0.3971
Zn47      Zn    1.0251268730    0.4748731270   -0.0251268730          1.4972
Zn48      Zn    0.9748731270    0.4748731270    0.0251268730          1.4936
Zn49      Zn    1.0251268730    0.5251268730    0.0251268730          1.4911
Zn50      Zn    0.9748731270    0.5251268730   -0.0251268730          1.4948
O51        O    1.0000000000    0.5000000000    0.0000000000         -2.2156
O52        O    1.0184664140    0.4328441067   -0.0184664140          -1.122
O53        O    0.9815335860    0.4815335860    0.0671558933         -1.1202
O54        O    1.0671558933    0.5184664140    0.0184664140         -1.1153
O55        O    0.9815335860    0.4328441067    0.0184664140         -1.1221
O56        O    1.0671558933    0.4815335860   -0.0184664140         -1.1181
O57        O    1.0184664140    0.5184664140    0.0671558933         -1.1239
O58        O    0.9815335860    0.5671558933   -0.0184664140         -1.1178
O59        O    0.9328441067    0.4815335860    0.0184664140         -1.1254
O60        O    1.0184664140    0.5671558933    0.0184664140         -1.1193
O61        O    0.9328441067    0.5184664140   -0.0184664140          -1.124
O62        O    0.9815335860    0.5184664140   -0.0671558933         -1.1231
O63        O    1.0184664140    0.4815335860   -0.0671558933          -1.121
C64        C    1.0000000000    0.4197069564    0.0000000000          0.3969
C65        C    1.0000000000    0.5000000000    0.0802930436          0.4018
C66        C    1.0802930436    0.5000000000    0.0000000000          0.3914
C67        C    1.0000000000    0.5802930436    0.0000000000          0.3952
C68        C    0.9197069564    0.5000000000    0.0000000000          0.4066
C69        C    1.0000000000    0.5000000000   -0.0802930436          0.3971
Zn70      Zn    0.9748731270    0.4748731270    0.5251268730          1.4972
Zn71      Zn    1.0251268730    0.4748731270    0.4748731270          1.4936
Zn72      Zn    0.9748731270    0.5251268730    0.4748731270          1.4911
Zn73      Zn    1.0251268730    0.5251268730    0.5251268730          1.4948
O74        O    1.0000000000    0.5000000000    0.5000000000         -2.2156
O75        O    0.9815335860    0.4328441067    0.5184664140          -1.122
O76        O    1.0184664140    0.4815335860    0.4328441067         -1.1202
O77        O    0.9328441067    0.5184664140    0.4815335860         -1.1153
O78        O    1.0184664140    0.4328441067    0.4815335860         -1.1221
O79        O    0.9328441067    0.4815335860    0.5184664140         -1.1181
O80        O    0.9815335860    0.5184664140    0.4328441067         -1.1239
O81        O    1.0184664140    0.5671558933    0.5184664140         -1.1178
O82        O    1.0671558933    0.4815335860    0.4815335860         -1.1254
O83        O    0.9815335860    0.5671558933    0.4815335860         -1.1193
O84        O    1.0671558933    0.5184664140    0.5184664140          -1.124
O85        O    1.0184664140    0.5184664140    0.5671558933         -1.1231
O86        O    0.9815335860    0.4815335860    0.5671558933          -1.121
C87        C    1.0000000000    0.4197069564    0.5000000000          0.3969
C88        C    1.0000000000    0.5000000000    0.4197069564          0.4018
C89        C    0.9197069564    0.5000000000    0.5000000000          0.3914
C90        C    1.0000000000    0.5802930436    0.5000000000          0.3952
C91        C    1.0802930436    0.5000000000    0.5000000000          0.4066
C92        C    1.0000000000    0.5000000000    0.5802930436          0.3971
Zn93      Zn    0.4748731270    0.9748731270   -0.0251268730          1.4972
Zn94      Zn    0.4748731270    1.0251268730    0.0251268730          1.4936
Zn95      Zn    0.5251268730    0.9748731270    0.0251268730          1.4911
Zn96      Zn    0.5251268730    1.0251268730   -0.0251268730          1.4948
O97        O    0.5000000000    1.0000000000    0.0000000000         -2.2156
O98        O    0.4328441067    0.9815335860   -0.0184664140          -1.122
O99        O    0.4815335860    1.0184664140    0.0671558933         -1.1202
O100       O    0.5184664140    0.9328441067    0.0184664140         -1.1153
O101       O    0.4328441067    1.0184664140    0.0184664140         -1.1221
O102       O    0.4815335860    0.9328441067   -0.0184664140         -1.1181
O103       O    0.5184664140    0.9815335860    0.0671558933         -1.1239
O104       O    0.5671558933    1.0184664140   -0.0184664140         -1.1178
O105       O    0.4815335860    1.0671558933    0.0184664140         -1.1254
O106       O    0.5671558933    0.9815335860    0.0184664140         -1.1193
O107       O    0.5184664140    1.0671558933   -0.0184664140          -1.124
O108       O    0.5184664140    1.0184664140   -0.0671558933         -1.1231
O109       O    0.4815335860    0.9815335860   -0.0671558933          -1.121
C110       C    0.4197069564    1.0000000000    0.0000000000          0.3969
C111       C    0.5000000000    1.0000000000    0.0802930436          0.4018
C112       C    0.5000000000    0.9197069564    0.0000000000          0.3914
C113       C    0.5802930436    1.0000000000    0.0000000000          0.3952
C114       C    0.5000000000    1.0802930436    0.0000000000          0.4066
C115       C    0.5000000000    1.0000000000   -0.0802930436          0.3971
Zn116     Zn    0.4748731270    1.0251268730    0.5251268730          1.4972
Zn117     Zn    0.4748731270    0.9748731270    0.4748731270          1.4936
Zn118     Zn    0.5251268730    1.0251268730    0.4748731270          1.4911
Zn119     Zn    0.5251268730    0.9748731270    0.5251268730          1.4948
O120       O    0.5000000000    1.0000000000    0.5000000000         -2.2156
O121       O    0.4328441067    1.0184664140    0.5184664140          -1.122
O122       O    0.4815335860    0.9815335860    0.4328441067         -1.1202
O123       O    0.5184664140    1.0671558933    0.4815335860         -1.1153
O124       O    0.4328441067    0.9815335860    0.4815335860         -1.1221
O125       O    0.4815335860    1.0671558933    0.5184664140         -1.1181
O126       O    0.5184664140    1.0184664140    0.4328441067         -1.1239
O127       O    0.5671558933    0.9815335860    0.5184664140         -1.1178
O128       O    0.4815335860    0.9328441067    0.4815335860         -1.1254
O129       O    0.5671558933    1.0184664140    0.4815335860         -1.1193
O130       O    0.5184664140    0.9328441067    0.5184664140          -1.124
O131       O    0.5184664140    0.9815335860    0.5671558933         -1.1231
O132       O    0.4815335860    1.0184664140    0.5671558933          -1.121
C133       C    0.4197069564    1.0000000000    0.5000000000          0.3969
C134       C    0.5000000000    1.0000000000    0.4197069564          0.4018
C135       C    0.5000000000    1.0802930436    0.5000000000          0.3914
C136       C    0.5802930436    1.0000000000    0.5000000000          0.3952
C137       C    0.5000000000    0.9197069564    0.5000000000          0.4066
C138       C    0.5000000000    1.0000000000    0.5802930436          0.3971
Zn139     Zn    0.4748731270    0.5251268730   -0.0251268730          1.4972
Zn140     Zn    0.4748731270    0.4748731270    0.0251268730          1.4936
Zn141     Zn    0.5251268730    0.4748731270   -0.0251268730          1.4911
Zn142     Zn    0.5251268730    0.5251268730    0.0251268730          1.4948
O143       O    0.5000000000    0.5000000000    0.0000000000         -2.2156
O144       O    0.4328441067    0.5184664140   -0.0184664140          -1.122
O145       O    0.4815335860    0.4328441067    0.0184664140         -1.1202
O146       O    0.5184664140    0.4815335860   -0.0671558933         -1.1153
O147       O    0.4328441067    0.4815335860    0.0184664140         -1.1221
O148       O    0.4815335860    0.5184664140   -0.0671558933         -1.1181
O149       O    0.5184664140    0.4328441067   -0.0184664140         -1.1239
O150       O    0.5671558933    0.5184664140    0.0184664140         -1.1178
O151       O    0.4815335860    0.4815335860    0.0671558933         -1.1254
O152       O    0.5671558933    0.4815335860   -0.0184664140         -1.1193
O153       O    0.5184664140    0.5184664140    0.0671558933          -1.124
O154       O    0.5184664140    0.5671558933    0.0184664140         -1.1231
O155       O    0.4815335860    0.5671558933   -0.0184664140          -1.121
C156       C    0.4197069564    0.5000000000    0.0000000000          0.3969
C157       C    0.5000000000    0.4197069564    0.0000000000          0.4018
C158       C    0.5000000000    0.5000000000   -0.0802930436          0.3914
C159       C    0.5802930436    0.5000000000    0.0000000000          0.3952
C160       C    0.5000000000    0.5000000000    0.0802930436          0.4066
C161       C    0.5000000000    0.5802930436    0.0000000000          0.3971
Zn162     Zn    0.4748731270    0.4748731270    0.5251268730          1.4972
Zn163     Zn    0.4748731270    0.5251268730    0.4748731270          1.4936
Zn164     Zn    0.5251268730    0.5251268730    0.5251268730          1.4911
Zn165     Zn    0.5251268730    0.4748731270    0.4748731270          1.4948
O166       O    0.5000000000    0.5000000000    0.5000000000         -2.2156
O167       O    0.4328441067    0.4815335860    0.5184664140          -1.122
O168       O    0.4815335860    0.5671558933    0.4815335860         -1.1202
O169       O    0.5184664140    0.5184664140    0.5671558933         -1.1153
O170       O    0.4328441067    0.5184664140    0.4815335860         -1.1221
O171       O    0.4815335860    0.4815335860    0.5671558933         -1.1181
O172       O    0.5184664140    0.5671558933    0.5184664140         -1.1239
O173       O    0.5671558933    0.4815335860    0.4815335860         -1.1178
O174       O    0.4815335860    0.5184664140    0.4328441067         -1.1254
O175       O    0.5671558933    0.5184664140    0.5184664140         -1.1193
O176       O    0.5184664140    0.4815335860    0.4328441067          -1.124
O177       O    0.5184664140    0.4328441067    0.4815335860         -1.1231
O178       O    0.4815335860    0.4328441067    0.5184664140          -1.121
C179       C    0.4197069564    0.5000000000    0.5000000000          0.3969
C180       C    0.5000000000    0.5802930436    0.5000000000          0.4018
C181       C    0.5000000000    0.5000000000    0.5802930436          0.3914
C182       C    0.5802930436    0.5000000000    0.5000000000          0.3952
C183       C    0.5000000000    0.5000000000    0.4197069564          0.4066
C184       C    0.5000000000    0.4197069564    0.5000000000          0.3971
C829       C    0.5000000000    0.5000000000   -0.1148055163          0.6223
C830       C    0.4993892599    0.5293678187   -0.1209248199          0.6217
C831       C    0.5007032339    0.5391389902   -0.1491061396         -0.3771
C832       C    0.5026307330    0.5200264613   -0.1722552605         -0.3754
C833       C    0.5031304551    0.4906504187   -0.1660242621          -0.375
C834       C    0.5017257385    0.4807658089   -0.1378288322         -0.3762
C835       C    0.5046200460    0.5318567007   -0.2043070277         -0.3736
Br836     Br    0.4999520762    0.5810891268   -0.1549110817          0.6222
H837       H    0.4979816937    0.5457573493   -0.1029402602          0.6205
H838       H    0.5022475527    0.4566926324   -0.1340412242         -0.3757
H839       H    0.5047621322    0.4742113528   -0.1839448855         -0.3735
C840       C    0.4963307631    0.5100729251   -0.2299965990          0.6189
N841       N    0.4885210579    0.5277135613   -0.2570681838           0.612
N842       N    0.4800110688    0.5456358749   -0.2422559278          0.6044
N843       N    0.5021601882    0.5487547407   -0.2221266673         -0.3758
C844       C    0.5094704729    0.5230660464   -0.2824721999         -0.3694
H845       H    0.5151644553    0.4949791970   -0.2345944719         -0.3643
H846       H    0.4771253500    0.4961447641   -0.2234111963          0.6018
H847       H    0.5264474812    0.5422315426   -0.2083878055         -0.3542
C848       C    0.5025463628    0.4949808937   -0.3015880584         -0.3756
N849       N    0.4977015242    0.5036507325   -0.3331788896          0.6201
N850       N    0.4832122252    0.5226491203   -0.3266517993          0.6072
N851       N    0.5009655046    0.5319675228   -0.3040488101          -0.377
C852       C    0.4972770129    0.4883294944   -0.3605466242          0.6197
H853       H    0.5218021549    0.4797841237   -0.3004635846         -0.3584
H854       H    0.4831147210    0.4826151276   -0.2927084754          0.6071
H855       H    0.5144242044    0.5440419853   -0.2945724346         -0.3649
C856       C    0.5000000000    0.5000000000   -0.3851944837          0.6221
C801       C    0.5000000000    0.5000000000    0.3851944837          0.6223
C802       C    0.5293680694    0.5005985604    0.3790751801          0.6217
C803       C    0.5391386952    0.4992805342    0.3508938604         -0.3771
C804       C    0.5200253686    0.4973609617    0.3277447395         -0.3754
C805       C    0.4906491212    0.4968734227    0.3339757379          -0.375
C806       C    0.4807650948    0.4982822386    0.3621711678         -0.3762
C807       C    0.5318547819    0.4953667425    0.2956929723         -0.3736
Br808     Br    0.5810891397    0.5000142939    0.3450889183          0.6222
H809       H    0.5457581824    0.5019993293    0.3970597398          0.6205
H810       H    0.4566917040    0.4977704082    0.3659587758         -0.3757
H811       H    0.4742093800    0.4952485634    0.3160551145         -0.3735
C812       C    0.5100744459    0.5036650591    0.2700034010          0.6189
N813       N    0.5277183196    0.5114674475    0.2429318162           0.612
N814       N    0.5456441609    0.5199700031    0.2577440722          0.6044
N815       N    0.5487538406    0.4978195921    0.2778733327         -0.3758
C816       C    0.5230621168    0.4905199618    0.2175278001         -0.3694
H817       H    0.4949729083    0.4848376283    0.2654055281         -0.3643
H818       H    0.4961542512    0.5228762469    0.2765888037          0.6018
H819       H    0.5422205705    0.4735350065    0.2916121945         -0.3542
C820       C    0.4949798381    0.4974557190    0.1984119416         -0.3756
N821       N    0.5036516855    0.5022969616    0.1668211104          0.6201
N822       N    0.5226560807    0.5167783802    0.1733482007          0.6072
N823       N    0.5319671196    0.4990212377    0.1959511899          -0.377
C824       C    0.4883306247    0.5027278270    0.1394533758          0.6197
H825       H    0.4797750835    0.4782062311    0.1995364154         -0.3584
H826       H    0.4826221319    0.5168924875    0.2072915246          0.6071
H827       H    0.5440359994    0.4855575314    0.2054275654         -0.3649
C828       C    0.5000000000    0.5000000000    0.1148055163          0.6221
C773       C    0.5000000000    0.8851944837    0.5000000000          0.6223
C774       C    0.4985342920    0.8790751801    0.4706624221          0.6217
C775       C    0.4995631602    0.8508938604    0.4608571301         -0.3771
C776       C    0.5020464221    0.8277447395    0.4799054220         -0.3754
C777       C    0.5034013987    0.8339757379    0.5092544533          -0.375
C778       C    0.5022851299    0.8621711678    0.5191757780         -0.3762
C779       C    0.5036903804    0.7956929723    0.4680222687         -0.3736
Br780     Br    0.4975906816    0.8450889183    0.4189466597          0.6222
H781       H    0.4966500396    0.8970597398    0.4543208325          0.6205
H782       H    0.5035077632    0.8659587758    0.5432235489         -0.3757
H783       H    0.5055111096    0.8160551145    0.5256390308         -0.3735
C784       C    0.4960389833    0.7700034010    0.4900381997          0.6189
N785       N    0.4877188734    0.7429318162    0.4726324732           0.612
N786       N    0.4786905736    0.7577440722    0.4549655821          0.6044
N787       N    0.5007394741    0.7778733327    0.4512030295         -0.3758
C788       C    0.5087947447    0.7175278001    0.4766679444         -0.3694
H789       H    0.5153042358    0.7654055281    0.5045770661         -0.3643
H790       H    0.4772473207    0.7765888037    0.5045197387          0.6018
H791       H    0.5252064301    0.7916121945    0.4570161852         -0.3542
C792       C    0.5026914454    0.6984119416    0.5049428244         -0.3756
N793       N    0.4975961852    0.6668211104    0.4964177502          0.6201
N794       N    0.4825597749    0.6733482007    0.4778493661          0.6072
N795       N    0.5000341616    0.6959511899    0.4680179184          -0.377
C796       C    0.4976180272    0.6394533758    0.5117448527          0.6197
H797       H    0.5223816194    0.6995364154    0.5195723970         -0.3584
H798       H    0.4836281511    0.7072915246    0.5178692193          0.6071
H799       H    0.5131355303    0.7054275654    0.4555566430         -0.3649
C800       C    0.5000000000    0.6148055163    0.5000000000          0.6221
C745       C    0.5000000000    1.1148055163    0.5000000000          0.6223
C746       C    0.4737793179    1.1209248199    0.4867592446          0.6217
C747       C    0.4643996723    1.1491061396    0.4837220468         -0.3771
C748       C    0.4808029163    1.1722552605    0.4937189263         -0.3754
C749       C    0.5070789864    1.1660242621    0.5068631167          -0.375
C750       C    0.5166001436    1.1378288322    0.5098674979         -0.3762
C751       C    0.4692745380    1.2043070277    0.4904010319         -0.3736
Br752     Br    0.4268926366    1.1549110817    0.4649177794          0.6222
H753       H    0.4596070718    1.1029402602    0.4784078734          0.6205
H754       H    0.5380844188    1.1340412242    0.5207402175         -0.3757
H755       H    0.5211990651    1.1839448855    0.5154380008         -0.3735
C756       C    0.4925014955    1.2299965990    0.4923384369          0.6189
N757       N    0.4799673682    1.2570681838    0.4776728583           0.612
N758       N    0.4674818138    1.2422559278    0.4622540331          0.6044
N759       N    0.4550984066    1.2221266673    0.4808809502         -0.3758
C760       C    0.4751062628    1.2824721999    0.4985737443         -0.3694
H761       H    0.4979752435    1.2345944719    0.5158451737         -0.3643
H762       H    0.5133609882    1.2234111963    0.4810369715          0.6018
H763       H    0.4504865231    1.2083878055    0.5056025045         -0.3542
C764       C    0.5034260519    1.3015880584    0.5044651495         -0.3756
N765       N    0.4977008665    1.3331788896    0.4963496816          0.6201
N766       N    0.4868285717    1.3266517993    0.4750735981          0.6072
N767       N    0.4707537409    1.3040488101    0.4870573943          -0.377
C768       C    0.5117013508    1.3605466242    0.5025872281          0.6197
H769       H    0.5088103342    1.3004635846    0.5283970707         -0.3584
H770       H    0.5229742949    1.2927084754    0.4922845474          0.6071
H771       H    0.4540491393    1.2945724346    0.4939773313         -0.3649
C772       C    0.5000000000    1.3851944837    0.5000000000          0.6221
C717       C    0.5000000000    0.6148055163    0.0000000000          0.6223
C718       C    0.4788443312    0.6209248199    0.0203784066          0.6217
C719       C    0.4728805186    0.6491061396    0.0282292193         -0.3771
C720       C    0.4877327383    0.6722552605    0.0160466258         -0.3754
C721       C    0.5088155453    0.6660242621   -0.0044159461          -0.375
C722       C    0.5147951056    0.6378288322   -0.0124111696         -0.3762
C723       C    0.4807945085    0.7043070277    0.0258329886         -0.3736
Br724     Br    0.4427468499    0.6549110817    0.0574240855          0.6222
H725       H    0.4662819625    0.6029402602    0.0309984278          0.6205
H726       H    0.5321516874    0.6340412242   -0.0291006628         -0.3757
H727       H    0.5215716676    0.6839448855   -0.0149129267         -0.3735
C728       C    0.4902922707    0.7299965990    0.0045483086          0.6189
N729       N    0.4723106708    0.7570681838    0.0115372718           0.612
N730       N    0.4536341048    0.7422559278    0.0182316814          0.6044
N731       N    0.4671276889    0.7221266673    0.0360707959         -0.3758
C732       C    0.4904343890    0.7824721999    0.0230267549         -0.3694
H733       H    0.5142880325    0.7345944719    0.0071429192         -0.3643
H734       H    0.4865119288    0.7234111963   -0.0188728480          0.6018
H735       H    0.4889400958    0.7083878055    0.0485865308         -0.3542
C736       C    0.5053459433    0.8015880584   -0.0017596255         -0.3756
N737       N    0.4957952739    0.8331788896    0.0009649444          0.6201
N738       N    0.4721225917    0.8266517993    0.0042026353          0.6072
N739       N    0.4781267843    0.8040488101    0.0233327483          -0.377
C740       C    0.5063056515    0.8605466242   -0.0101908841          0.6197
H741       H    0.5297135052    0.8004635846    0.0010598197         -0.3584
H742       H    0.5003028230    0.7927084754   -0.0242333393          0.6071
H743       H    0.4791431679    0.7945724346    0.0413853440         -0.3649
C744       C    0.5000000000    0.8851944837    0.0000000000          0.6221
C689       C    0.5000000000    1.3851944837    0.0000000000          0.6223
C690       C    0.5142510900    1.3790751801    0.0256855643          0.6217
C691       C    0.5176509911    1.3508938604    0.0349399142         -0.3771
C692       C    0.5070233603    1.3277447395    0.0189381181         -0.3754
C693       C    0.4928666068    1.3339757379   -0.0068065499          -0.375
C694       C    0.4894939906    1.3621711678   -0.0162035813         -0.3762
C695       C    0.5107873622    1.2956929723    0.0303286502         -0.3736
Br696     Br    0.5379005813    1.3450889183    0.0716867820          0.6222
H697       H    0.5231476407    1.3970597398    0.0395220863          0.6205
H698       H    0.4777934575    1.3659587758   -0.0372484771         -0.3757
H699       H    0.4837487425    1.3160551145   -0.0205822462         -0.3735
C700       C    0.5079475601    1.2700034010    0.0071946791          0.6189
N701       N    0.5230897890    1.2429318162    0.0191486092           0.612
N702       N    0.5389828038    1.2577440722    0.0310246910          0.6044
N703       N    0.5208518894    1.2778733327    0.0441235749         -0.3758
C704       C    0.5023939018    1.2175278001    0.0248193793         -0.3694
H705       H    0.4842456206    1.2654055281    0.0026398293         -0.3643
H706       H    0.5184287291    1.2765888037   -0.0140888040          0.6018
H707       H    0.4963285296    1.2916121945    0.0496939912         -0.3542
C708       C    0.4954049097    1.1984119416   -0.0032496979         -0.3756
N709       N    0.5037370230    1.1668211104    0.0021553419          0.6201
N710       N    0.5254200804    1.1733482007    0.0121914539          0.6072
N711       N    0.5140709048    1.1959511899    0.0287204518          -0.377
C712       C    0.4969593798    1.1394533758   -0.0115918070          0.6197
H713       H    0.4712815894    1.1995364154   -0.0076986039         -0.3584
H714       H    0.5068155761    1.2072915246   -0.0232571356          0.6071
H715       H    0.5078062600    1.2054275654    0.0456816861         -0.3649
C716       C    0.5000000000    1.1148055163    0.0000000000          0.6221
C661       C    0.5000000000    1.0000000000   -0.3851944837          0.6223
C662       C    0.5005973125    1.0293680948   -0.3790751801          0.6217
C663       C    0.4992788710    1.0391386646   -0.3508938604         -0.3771
C664       C    0.4973601108    1.0200252564   -0.3277447395         -0.3754
C665       C    0.4968738200    0.9906489884   -0.3339757379          -0.375
C666       C    0.4982830559    0.9807650219   -0.3621711678         -0.3762
C667       C    0.4953653889    1.0318545850   -0.2956929723         -0.3736
Br668     Br    0.5000108482    1.0810891403   -0.3450889183          0.6222
H669       H    0.5019973849    1.0457582674   -0.3970597398          0.6205
H670       H    0.4977722485    0.9566916093   -0.3659587758         -0.3757
H671       H    0.4952496594    0.9742091781   -0.3160551145         -0.3735
C672       C    0.5036646310    1.0100746017   -0.2700034010          0.6189
N673       N    0.5114662697    1.0277188068   -0.2429318162           0.612
N674       N    0.5199680635    1.0456450094   -0.2577440722          0.6044
N675       N    0.4978175204    1.0487537479   -0.2778733327         -0.3758
C676       C    0.4905189818    1.0230617139   -0.2175278001         -0.3694
H677       H    0.4848378419    0.9949722640   -0.2654055281         -0.3643
H678       H    0.5228764103    0.9961552233   -0.2765888037          0.6018
H679       H    0.4735332124    1.0422194459   -0.2916121945         -0.3542
C680       C    0.4974559323    0.9949797300   -0.1984119416         -0.3756
N681       N    0.5022968064    1.0036517831   -0.1668211104          0.6201
N682       N    0.5167774174    1.0226567937   -0.1733482007          0.6072
N683       N    0.4990198793    1.0319670780   -0.1959511899          -0.377
C684       C    0.5027283228    0.9883307406   -0.1394533758          0.6197
H685       H    0.4782070905    0.9797741574   -0.1995364154         -0.3584
H686       H    0.5168932259    0.9826228497   -0.2072915246          0.6071
H687       H    0.4855556602    1.0440353856   -0.2054275654         -0.3649
C688       C    0.5000000000    1.0000000000   -0.1148055163          0.6221
C633       C    0.5000000000    1.0000000000    0.3851944837          0.6223
C634       C    0.5293680694    1.0005985604    0.3790751801          0.6217
C635       C    0.5391386952    0.9992805342    0.3508938604         -0.3771
C636       C    0.5200253686    0.9973609617    0.3277447395         -0.3754
C637       C    0.4906491212    0.9968734227    0.3339757379          -0.375
C638       C    0.4807650948    0.9982822386    0.3621711678         -0.3762
C639       C    0.5318547819    0.9953667425    0.2956929723         -0.3736
Br640     Br    0.5810891397    1.0000142939    0.3450889183          0.6222
H641       H    0.5457581824    1.0019993293    0.3970597398          0.6205
H642       H    0.4566917040    0.9977704082    0.3659587758         -0.3757
H643       H    0.4742093800    0.9952485634    0.3160551145         -0.3735
C644       C    0.5100744459    1.0036650591    0.2700034010          0.6189
N645       N    0.5277183196    1.0114674475    0.2429318162           0.612
N646       N    0.5456441609    1.0199700031    0.2577440722          0.6044
N647       N    0.5487538406    0.9978195921    0.2778733327         -0.3758
C648       C    0.5230621168    0.9905199618    0.2175278001         -0.3694
H649       H    0.4949729083    0.9848376283    0.2654055281         -0.3643
H650       H    0.4961542512    1.0228762469    0.2765888037          0.6018
H651       H    0.5422205705    0.9735350065    0.2916121945         -0.3542
C652       C    0.4949798381    0.9974557190    0.1984119416         -0.3756
N653       N    0.5036516855    1.0022969616    0.1668211104          0.6201
N654       N    0.5226560807    1.0167783802    0.1733482007          0.6072
N655       N    0.5319671196    0.9990212377    0.1959511899          -0.377
C656       C    0.4883306247    1.0027278270    0.1394533758          0.6197
H657       H    0.4797750835    0.9782062311    0.1995364154         -0.3584
H658       H    0.4826221319    1.0168924875    0.2072915246          0.6071
H659       H    0.5440359994    0.9855575314    0.2054275654         -0.3649
C660       C    0.5000000000    1.0000000000    0.1148055163          0.6221
C605       C    0.8851944837    0.5000000000    0.5000000000          0.6223
C606       C    0.8790751801    0.4788144562    0.5203473466          0.6217
C607       C    0.8508938604    0.4728391319    0.5281894011         -0.3771
C608       C    0.8277447395    0.4877092090    0.5160286108         -0.3754
C609       C    0.8339757379    0.5088220146    0.4955969922          -0.375
C610       C    0.8621711678    0.5148132985    0.4876105501         -0.3762
C611       C    0.7956929723    0.4807566289    0.5258047839         -0.3736
Br612     Br    0.8450889183    0.4426626630    0.5573400259          0.6222
H613       H    0.8970597398    0.4662365201    0.5309489258          0.6205
H614       H    0.8659587758    0.5321943473    0.4709465392         -0.3757
H615       H    0.8160551145    0.5215935236    0.4851187377         -0.3735
C616       C    0.7700034010    0.4902856082    0.5045340612          0.6189
N617       N    0.7429318162    0.4722937739    0.5114966356           0.612
N618       N    0.7577440722    0.4536074065    0.5181636371          0.6044
N619       N    0.7778733327    0.4670748038    0.5360225291         -0.3758
C620       C    0.7175278001    0.4904006161    0.5230126961         -0.3694
H621       H    0.7654055281    0.5142775376    0.5071638739         -0.3643
H622       H    0.7765888037    0.4865396322    0.4811073836          0.6018
H623       H    0.7916121945    0.4888688250    0.5485702522         -0.3542
C624       C    0.6984119416    0.5053485191    0.4982482195         -0.3756
N625       N    0.6668211104    0.4957938627    0.5009587745          0.6201
N626       N    0.6733482007    0.4721164559    0.5041617310          0.6072
N627       N    0.6959511899    0.4780925757    0.5233006324          -0.377
C628       C    0.6394533758    0.5063205961    0.4898183781          0.6197
H629       H    0.6995364154    0.5297119184    0.5011034120         -0.3584
H630       H    0.7072915246    0.5003383761    0.4757671311          0.6071
H631       H    0.7054275654    0.4790824728    0.5413546998         -0.3649
C632       C    0.6148055163    0.5000000000    0.5000000000          0.6221
C577       C    1.1148055163    0.5000000000    0.5000000000          0.6223
C578       C    1.1209248199    0.5203290209    0.4787968709          0.6217
C579       C    1.1491061396    0.5281659060    0.4728147682         -0.3771
C580       C    1.1722552605    0.5160179777    0.4876953545         -0.3754
C581       C    1.1660242621    0.4956046218    0.5088258184          -0.375
C582       C    1.1378288322    0.4876233630    0.5148240054         -0.3762
C583       C    1.2043070277    0.5257881355    0.4807343241         -0.3736
Br584     Br    1.1549110817    0.5572904280    0.4426131056          0.6222
H585       H    1.1029402602    0.5309197207    0.4662097729          0.6205
H586       H    1.1340412242    0.4709743868    0.5322194562         -0.3757
H587       H    1.1839448855    0.4851374140    0.5216063826         -0.3735
C588       C    1.2299965990    0.5045256600    0.4902816915          0.6189
N589       N    1.2570681838    0.5114726752    0.4722838438           0.612
N590       N    1.2422559278    0.5181235171    0.4535917187          0.6044
N591       N    1.2221266673    0.5359940470    0.4670436693         -0.3758
C592       C    1.2824721999    0.5230043874    0.4903807218         -0.3694
H593       H    1.2345944719    0.5071762162    0.5142713380         -0.3643
H594       H    1.2234111963    0.4810957522    0.4865559727          0.6018
H595       H    1.2083878055    0.5485606095    0.4888268331         -0.3542
C596       C    1.3015880584    0.4982528448    0.5053500318         -0.3756
N597       N    1.3331788896    0.5009551374    0.4957930353          0.6201
N598       N    1.3266517993    0.5041376200    0.4721128679          0.6072
N599       N    1.3040488101    0.5232816815    0.4780724370          -0.377
C600       C    1.3605466242    0.4898238470    0.5063293972          0.6197
H601       H    1.3004635846    0.5011291019    0.5297109532         -0.3584
H602       H    1.2927084754    0.4757674327    0.5003593288          0.6071
H603       H    1.2945724346    0.5413365980    0.4790467234         -0.3649
C604       C    1.3851944837    0.5000000000    0.5000000000          0.6221
C549       C    0.8851944837    0.5000000000    0.0000000000          0.6223
C550       C    0.8790751801    0.4717539111   -0.0080622725          0.6217
C551       C    0.8508938604    0.4619699646   -0.0092774724         -0.3771
C552       C    0.8277447395    0.4799632100   -0.0025508738         -0.3754
C553       C    0.8339757379    0.5082454970    0.0054061261          -0.375
C554       C    0.8621711678    0.5181622354    0.0065624298         -0.3762
C555       C    0.7956929723    0.4680161326   -0.0036368156         -0.3736
Br556     Br    0.8450889183    0.4215913032   -0.0206766790          0.6222
H557       H    0.8970597398    0.4562617846   -0.0135932736          0.6205
H558       H    0.8659587758    0.5413105265    0.0131916633         -0.3757
H559       H    0.8160551145    0.5237285115    0.0111664663         -0.3735
C560       C    0.7700034010    0.4911920353   -0.0061112091          0.6189
N561       N    0.7429318162    0.4761187743   -0.0181519876           0.612
N562       N    0.7577440722    0.4609512678   -0.0309416702          0.6044
N563       N    0.7778733327    0.4522999485   -0.0103148554         -0.3758
C564       C    0.7175278001    0.4752835065    0.0032904869         -0.3694
H565       H    0.7654055281    0.5009975207    0.0159428391         -0.3643
H566       H    0.7765888037    0.5095480453   -0.0211411278          0.6018
H567       H    0.7916121945    0.4524294365    0.0148328671         -0.3542
C568       C    0.6984119416    0.5042061184    0.0037395132         -0.3756
N569       N    0.6668211104    0.4970541627   -0.0031516475          0.6201
N570       N    0.6733482007    0.4823672193   -0.0219976608          0.6072
N571       N    0.6959511899    0.4688387291   -0.0071992992          -0.377
C572       C    0.6394533758    0.5119792578    0.0003357705          0.6197
H573       H    0.6995364154    0.5140038665    0.0262279876         -0.3584
H574       H    0.7072915246    0.5211087002   -0.0119066876          0.6071
H575       H    0.7054275654    0.4537374747    0.0027446115         -0.3649
C576       C    0.6148055163    0.5000000000    0.0000000000          0.6221
C521       C    1.1148055163    0.5000000000    0.0000000000          0.6223
C522       C    1.1209248199    0.5134058576   -0.0261366555          0.6217
C523       C    1.1491061396    0.5192014854   -0.0341124325         -0.3771
C524       C    1.1722552605    0.5118235583   -0.0163763054         -0.3754
C525       C    1.1660242621    0.4983160890    0.0097148784          -0.375
C526       C    1.1378288322    0.4923867397    0.0177474096         -0.3762
C527       C    1.2043070277    0.5191911661   -0.0258436326         -0.3736
Br528     Br    1.1549110817    0.5384576448   -0.0713894834          0.6222
H529       H    1.1029402602    0.5199485428   -0.0412294096          0.6205
H530       H    1.1340412242    0.4814164298    0.0391820175         -0.3757
H531       H    1.1839448855    0.4919471258    0.0249576330         -0.3735
C532       C    1.2299965990    0.5015531600   -0.0106073000          0.6189
N533       N    1.2570681838    0.5030553127   -0.0298407885           0.612
N534       N    1.2422559278    0.5040748796   -0.0496546655          0.6044
N535       N    1.2221266673    0.5250491590   -0.0418835383         -0.3758
C536       C    1.2824721999    0.5192863758   -0.0158040521         -0.3694
H537       H    1.2345944719    0.5109624755    0.0116186617         -0.3643
H538       H    1.2234111963    0.4780375627   -0.0074675164          0.6018
H539       H    1.2083878055    0.5433273521   -0.0246112376         -0.3542
C540       C    1.3015880584    0.4998580683    0.0056262996         -0.3756
N541       N    1.3331788896    0.4997104156   -0.0043042979          0.6201
N542       N    1.3266517993    0.4959784809   -0.0279041111          0.6072
N543       N    1.3040488101    0.5160274122   -0.0276762853          -0.377
C544       C    1.3605466242    0.4920625230    0.0089784084          0.6197
H545       H    1.3004635846    0.5095899522    0.0281433550         -0.3584
H546       H    1.2927084754    0.4768851667    0.0072836060          0.6071
H547       H    1.2945724346    0.5336052074   -0.0319130722         -0.3649
C548       C    1.3851944837    0.5000000000    0.0000000000          0.6221
C493       C    1.0000000000    0.5000000000   -0.1148055163          0.6223
C494       C    1.0005349239    0.4706307025   -0.1209248199          0.6217
C495       C    0.9991957296    0.4608629557   -0.1491061396         -0.3771
C496       C    0.9973175767    0.4799803968   -0.1722552605         -0.3754
C497       C    0.9968936916    0.5093576315   -0.1660242621          -0.375
C498       C    0.9983239210    0.5192385821   -0.1378288322         -0.3762
C499       C    0.9952977301    0.4681553323   -0.2043070277         -0.3736
Br500     Br    0.9998385889    0.4189110197   -0.1549110817          0.6222
H501       H    1.0019001752    0.4542375928   -0.1029402602          0.6205
H502       H    0.9978642544    0.5433130254   -0.1340412242         -0.3757
H503       H    0.9953044580    0.5258008549   -0.1839448855         -0.3735
C504       C    1.0036432210    0.4899176362   -0.2299965990          0.6189
N505       N    1.0114073602    0.4722568977   -0.2570681838           0.612
N506       N    1.0198710539    0.4543126750   -0.2422559278          0.6044
N507       N    0.9977139568    0.4512509984   -0.2221266673         -0.3758
C508       C    0.9904700128    0.4769584788   -0.2824721999         -0.3694
H509       H    0.9848485566    0.5050599339   -0.2345944719         -0.3643
H510       H    1.0228845262    0.5037961713   -0.2234111963          0.6018
H511       H    0.9734435846    0.4578368733   -0.2083878055         -0.3542
C512       C    0.9974666027    0.5050256631   -0.3015880584         -0.3756
N513       N    1.0022890437    0.4963433460   -0.3331788896          0.6201
N514       N    1.0167292493    0.4773076168   -0.3266517993          0.6072
N515       N    0.9989519732    0.4680350762   -0.3040488101          -0.377
C516       C    1.0027531059    0.5116634372   -0.3605466242          0.6197
H517       H    0.9782501059    0.5202720921   -0.3004635846         -0.3552
H518       H    1.0169301024    0.5173412245   -0.2927084754          0.6071
H519       H    0.9854621476    0.4559953981   -0.2945724346         -0.3649
C520       C    1.0000000000    0.5000000000   -0.3851944837          0.6221
C465       C    1.0000000000    0.5000000000    0.1148055163          0.6223
C466       C    0.9706319306    0.5005985604    0.1209248199          0.6217
C467       C    0.9608613048    0.4992805342    0.1491061396         -0.3771
C468       C    0.9799746314    0.4973609617    0.1722552605         -0.3754
C469       C    1.0093508788    0.4968734227    0.1660242621          -0.375
C470       C    1.0192349052    0.4982822386    0.1378288322         -0.3762
C471       C    0.9681452181    0.4953667425    0.2043070277         -0.3736
Br472     Br    0.9189108603    0.5000142939    0.1549110817          0.6222
H473       H    0.9542418176    0.5019993293    0.1029402602          0.6205
H474       H    1.0433082960    0.4977704082    0.1340412242         -0.3757
H475       H    1.0257906200    0.4952485634    0.1839448855         -0.3735
C476       C    0.9899255541    0.5036650591    0.2299965990          0.6189
N477       N    0.9722816804    0.5114674475    0.2570681838           0.612
N478       N    0.9543558391    0.5199700031    0.2422559278          0.6044
N479       N    0.9512461594    0.4978195921    0.2221266673         -0.3758
C480       C    0.9769378832    0.4905199618    0.2824721999         -0.3694
H481       H    1.0050270917    0.4848376283    0.2345944719         -0.3643
H482       H    1.0038457488    0.5228762469    0.2234111963          0.6018
H483       H    0.9577794295    0.4735350065    0.2083878055         -0.3542
C484       C    1.0050201619    0.4974557190    0.3015880584         -0.3756
N485       N    0.9963483145    0.5022969616    0.3331788896          0.6201
N486       N    0.9773439193    0.5167783802    0.3266517993          0.6072
N487       N    0.9680328804    0.4990212377    0.3040488101          -0.377
C488       C    1.0116693753    0.5027278270    0.3605466242          0.6197
H489       H    1.0202249165    0.4782062311    0.3004635846         -0.3584
H490       H    1.0173778681    0.5168924875    0.2927084754          0.6071
H491       H    0.9559640006    0.4855575314    0.2945724346         -0.3649
C492       C    1.0000000000    0.5000000000    0.3851944837          0.6221
C437       C    1.0000000000   -0.3851944837    0.5000000000          0.6223
C438       C    0.9706319306   -0.3790751801    0.4994014396          0.6217
C439       C    0.9608613048   -0.3508938604    0.5007194658         -0.3771
C440       C    0.9799746314   -0.3277447395    0.5026390383         -0.3754
C441       C    1.0093508788   -0.3339757379    0.5031265773          -0.375
C442       C    1.0192349052   -0.3621711678    0.5017177614         -0.3762
C443       C    0.9681452181   -0.2956929723    0.5046332575         -0.3736
Br444     Br    0.9189108603   -0.3450889183    0.4999857061          0.6222
H445       H    0.9542418176   -0.3970597398    0.4980006707          0.6205
H446       H    1.0433082960   -0.3659587758    0.5022295918         -0.3757
H447       H    1.0257906200   -0.3160551145    0.5047514366         -0.3735
C448       C    0.9899255541   -0.2700034010    0.4963349409          0.6189
N449       N    0.9722816804   -0.2429318162    0.4885325525           0.612
N450       N    0.9543558391   -0.2577440722    0.4800299969          0.6044
N451       N    0.9512461594   -0.2778733327    0.5021804079         -0.3758
C452       C    0.9769378832   -0.2175278001    0.5094800382         -0.3694
H453       H    1.0050270917   -0.2654055281    0.5151623717         -0.3643
H454       H    1.0038457488   -0.2765888037    0.4771237531          0.6018
H455       H    0.9577794295   -0.2916121945    0.5264649935         -0.3542
C456       C    1.0050201619   -0.1984119416    0.5025442810         -0.3756
N457       N    0.9963483145   -0.1668211104    0.4977030384          0.6201
N458       N    0.9773439193   -0.1733482007    0.4832216198          0.6072
N459       N    0.9680328804   -0.1959511899    0.5009787623          -0.377
C460       C    1.0116693753   -0.1394533758    0.4972721730          0.6197
H461       H    1.0202249165   -0.1995364154    0.5217937689         -0.3584
H462       H    1.0173778681   -0.2072915246    0.4831075125          0.6071
H463       H    0.9559640006   -0.2054275654    0.5144424686         -0.3649
C464       C    1.0000000000   -0.1148055163    0.5000000000          0.6221
C409       C    1.0000000000    0.1148055163    0.5000000000          0.6223
C410       C    0.9986136528    0.1209248199    0.5293414352          0.6217
C411       C    0.9996690397    0.1491061396    0.5391439083         -0.3771
C412       C    1.0021007686    0.1722552605    0.5200889691         -0.3754
C413       C    1.0033763538    0.1660242621    0.4907363801          -0.375
C414       C    1.0022332528    0.1378288322    0.4808181111         -0.3762
C415       C    1.0037768637    0.2043070277    0.5319676321         -0.3736
Br416     Br    0.9978099323    0.1549110817    0.5810595607          0.6222
H417       H    0.9967736098    0.1029402602    0.5456880617          0.6205
H418       H    1.0033908347    0.1340412242    0.4567671211         -0.3757
H419       H    1.0054417382    0.1839448855    0.4743461560         -0.3735
C420       C    0.9960659436    0.2299965990    0.5099724781          0.6189
N421       N    0.9877929449    0.2570681838    0.5274006460           0.612
N422       N    0.9788124656    0.2422559278    0.5450918932          0.6044
N423       N    1.0008714627    0.2221266673    0.5487947918         -0.3758
C424       C    1.0088578236    0.2824721999    0.5233081813         -0.3694
H425       H    1.0152917993    0.2345944719    0.4953815541         -0.3643
H426       H    0.9772351784    0.2234111963    0.4955418217          0.6018
H427       H    1.0253226052    0.2083878055    0.5429154765         -0.3542
C428       C    1.0026780656    0.3015880584    0.4950499135         -0.3756
N429       N    0.9976058836    0.3331788896    0.5035887388          0.6201
N430       N    0.9826197542    0.3266517993    0.5221977271          0.6072
N431       N    1.0001206701    0.3040488101    0.5319818722          -0.377
C432       C    0.9975862671    0.3605466242    0.4882616333          0.6197
H433       H    1.0223285960    0.3004635846    0.4803671344         -0.3584
H434       H    0.9835798764    0.2927084754    0.4821751304          0.6071
H435       H    1.0132556974    0.2945724346    0.5444076640         -0.3649
C436       C    1.0000000000    0.3851944837    0.5000000000          0.6221
C381       C    0.8851944837   -0.0000000000    0.5000000000          0.6223
C382       C    0.8790751801    0.0240478103    0.4831315502          0.6217
C383       C    0.8508938604    0.0311520318    0.4762954433         -0.3771
C384       C    0.8277447395    0.0145972648    0.4860393492         -0.3754
C385       C    0.8339757379   -0.0093915493    0.5030022028          -0.375
C386       C    0.8621711678   -0.0165336218    0.5099785586         -0.3762
C387       C    0.7956929723    0.0229630055    0.4774413080         -0.3736
Br388     Br    0.8450889183    0.0654311847    0.4521020996          0.6222
H389       H    0.8970597398    0.0380989660    0.4745780141          0.6205
H390       H    0.8659587758   -0.0362584417    0.5237887576         -0.3757
H391       H    0.8160551145   -0.0236151432    0.5114042642         -0.3735
C392       C    0.7700034010    0.0102934715    0.4970047434          0.6189
N393       N    0.7429318162    0.0291383940    0.4928752835           0.612
N394       N    0.7577440722    0.0486244838    0.4891441252          0.6044
N395       N    0.7778733327    0.0380463736    0.4694358935         -0.3758
C396       C    0.7175278001    0.0130054852    0.4787258441         -0.3694
H397       H    0.7654055281   -0.0130141563    0.4907371223         -0.3643
H398       H    0.7765888037    0.0104130909    0.5207287238          0.6018
H399       H    0.7916121945    0.0184274067    0.4537030980         -0.3542
C400       C    0.6984119416   -0.0055534910    0.5009133070         -0.3756
N401       N    0.6668211104    0.0043032815    0.4996956848          0.6201
N402       N    0.6733482007    0.0281920064    0.5001510389          0.6072
N403       N    0.6959511899    0.0252128040    0.4803233838          -0.377
C404       C    0.6394533758   -0.0078031887    0.5090953618          0.6197
H405       H    0.6995364154   -0.0291937559    0.4943661532         -0.3584
H406       H    0.7072915246   -0.0040399768    0.5238961299          0.6071
H407       H    0.7054275654    0.0269952949    0.4623302748         -0.3649
C408       C    0.6148055163   -0.0000000000    0.5000000000          0.6221
C353       C    1.1148055163   -0.0000000000    0.5000000000          0.6223
C354       C    1.1209248199    0.0286399415    0.5065265250          0.6217
C355       C    1.1491061396    0.0378011571    0.5101699368         -0.3771
C356       C    1.1722552605    0.0187914350    0.5074068805         -0.3754
C357       C    1.1660242621   -0.0098295733    0.5007706551          -0.375
C358       C    1.1378288322   -0.0190788468    0.4970117088         -0.3762
C359       C    1.2043070277    0.0297865957    0.5122046269         -0.3736
Br360     Br    1.1549110817    0.0786821740    0.5196103104          0.6222
H361       H    1.1029402602    0.0448818448    0.5091339250          0.6205
H362       H    1.1340412242   -0.0425605080    0.4916823837         -0.3757
H363       H    1.1839448855   -0.0261738611    0.4983686739         -0.3735
C364       C    1.2299965990    0.0106619485    0.4988819785          0.6189
N365       N    1.2570681838    0.0296695836    0.4955814705           0.612
N366       N    1.2422559278    0.0491202503    0.4916698466          0.6044
N367       N    1.2221266673    0.0467769274    0.5139143886         -0.3758
C368       C    1.2824721999    0.0200823408    0.5147794432         -0.3694
H369       H    1.2345944719   -0.0085470658    0.5134950670         -0.3643
H370       H    1.2234111963    0.0018047916    0.4768730637          0.6018
H371       H    1.2083878055    0.0345608112    0.5358959996         -0.3542
C372       C    1.3015880584   -0.0054866696    0.5012537339         -0.3756
N373       N    1.3331788896    0.0040990188    0.4986550523          0.6201
N374       N    1.3266517993    0.0260431084    0.4892033089          0.6072
N375       N    1.3040488101    0.0307800094    0.5086859505          -0.377
C376       C    1.3605466242   -0.0106623413    0.4945291831          0.6197
H377       H    1.3004635846   -0.0248979737    0.5162513543         -0.3584
H378       H    1.2927084754   -0.0127731917    0.4794040779          0.6071
H379       H    1.2945724346    0.0392318164    0.5246701990         -0.3649
C380       C    1.3851944837   -0.0000000000    0.5000000000          0.6221
C325       C    0.0000000000   -0.3851944837    0.0000000000          0.6223
C326       C   -0.0284891235   -0.3790751801    0.0071562293          0.6217
C327       C   -0.0375678042   -0.3508938604    0.0110006900         -0.3771
C328       C   -0.0186236048   -0.3277447395    0.0078192872         -0.3754
C329       C    0.0098441721   -0.3339757379    0.0005538016          -0.375
C330       C    0.0190083426   -0.3621711678   -0.0034081067         -0.3762
C331       C   -0.0295103408   -0.2956929723    0.0128582265         -0.3736
Br332     Br   -0.0782308012   -0.3450889183    0.0213398813          0.6222
H333       H   -0.0446696076   -0.3970597398    0.0101210046          0.6205
H334       H    0.0423668281   -0.3659587758   -0.0092537266         -0.3757
H335       H    0.0261315437   -0.3160551145   -0.0022078617         -0.3735
C336       C   -0.0106840019   -0.2700034010   -0.0008827361          0.6189
N337       N   -0.0297597695   -0.2429318162   -0.0037634704           0.612
N338       N   -0.0492919317   -0.2577440722   -0.0072454066          0.6044
N339       N   -0.0464588575   -0.2778733327    0.0149420787         -0.3758
C340       C   -0.0197516888   -0.2175278001    0.0152185132         -0.3694
H341       H    0.0088424514   -0.2654055281    0.0133033913         -0.3643
H342       H   -0.0023141238   -0.2765888037   -0.0230815356          0.6018
H343       H   -0.0337611842   -0.2916121945    0.0366490777         -0.3542
C344       C    0.0055129717   -0.1984119416    0.0011324905         -0.3756
N345       N   -0.0041276686   -0.1668211104   -0.0012542692          0.6201
N346       N   -0.0262747648   -0.1733482007   -0.0102200181          0.6072
N347       N   -0.0305810728   -0.1959511899    0.0093623021          -0.377
C348       C    0.0105391615   -0.1394533758   -0.0057045101          0.6197
H349       H    0.0252501416   -0.1995364154    0.0156985974         -0.3584
H350       H    0.0123161070   -0.2072915246   -0.0208724686          0.6071
H351       H   -0.0386784969   -0.2054275654    0.0255289643         -0.3649
C352       C   -0.0000000000   -0.1148055163    0.0000000000          0.6221
C297       C   -0.0000000000    0.3851944837    0.0000000000          0.6223
C298       C    0.0293720920    0.3790751801   -0.0003492676          0.6217
C299       C    0.0391311786    0.3508938604    0.0010516426         -0.3771
C300       C    0.0200022475    0.3277447395    0.0028089152         -0.3754
C301       C   -0.0093770798    0.3339757379    0.0030470960          -0.375
C302       C   -0.0192487923    0.3621711678    0.0015544369         -0.3762
C303       C    0.0318143081    0.2956929723    0.0049034686         -0.3736
Br304     Br    0.0810863400    0.3450889183    0.0006739776          0.6222
H305       H    0.0457735041    0.3970597398   -0.0016108695          0.6205
H306       H   -0.0433256603    0.3659587758    0.0018619179         -0.3757
H307       H   -0.0258300204    0.3160551145    0.0045323590         -0.3735
C308       C    0.0101051914    0.2700034010   -0.0035794168          0.6189
N309       N    0.0278146549    0.2429318162   -0.0112317660           0.612
N310       N    0.0458120187    0.2577440722   -0.0195818638          0.6044
N311       N    0.0487335774    0.2778733327    0.0025941438         -0.3758
C312       C    0.0229808211    0.2175278001    0.0096754441         -0.3694
H313       H   -0.0051556063    0.2654055281    0.0151191564         -0.3643
H314       H   -0.0036514406    0.2765888037   -0.0229080649          0.6018
H315       H    0.0419944192    0.2916121945    0.0268224013         -0.3542
C316       C   -0.0050415765    0.1984119416    0.0025015791         -0.3756
N317       N    0.0036710502    0.1668211104   -0.0022658839          0.6201
N318       N    0.0227976767    0.1733482007   -0.0165854748          0.6072
N319       N    0.0319576605    0.1959511899    0.0012500586          -0.377
C320       C   -0.0116458016    0.1394533758   -0.0028267764          0.6197
H321       H   -0.0204091698    0.1995364154    0.0216213182         -0.3584
H322       H   -0.0172338616    0.2072915246   -0.0170393794          0.6071
H323       H    0.0439118278    0.2054275654    0.0148157185         -0.3649
C324       C    0.0000000000    0.1148055163    0.0000000000          0.6221
C269       C   -0.1148055163   -0.0000000000    0.0000000000          0.6223
C270       C   -0.1209248199   -0.0188303681    0.0225446005          0.6217
C271       C   -0.1491061396   -0.0239111510    0.0309937405         -0.3771
C272       C   -0.1722552605   -0.0104619441    0.0172779523         -0.3754
C273       C   -0.1660242621    0.0082868964   -0.0053424497          -0.375
C274       C   -0.1378288322    0.0133677340   -0.0139368565         -0.3762
C275       C   -0.2043070277   -0.0163023430    0.0277565815         -0.3736
Br276     Br   -0.1549110817   -0.0507145297    0.0632731006          0.6222
H277       H   -0.1029402602   -0.0301719307    0.0344595876          0.6205
H278       H   -0.1340412242    0.0288197640   -0.0324037155         -0.3757
H279       H   -0.1839448855    0.0198343707   -0.0171560475         -0.3735
C280       C   -0.2299965990   -0.0091595597    0.0055704205          0.6189
N281       N   -0.2570681838   -0.0262809028    0.0144610422           0.612
N282       N   -0.2422559278   -0.0441249655    0.0231339116          0.6044
N283       N   -0.2221266673   -0.0287831836    0.0394109058         -0.3758
C284       C   -0.2824721999   -0.0070220379    0.0239253702         -0.3694
H285       H   -0.2345944719    0.0149760659    0.0055575729         -0.3643
H286       H   -0.2234111963   -0.0154479760   -0.0173052735          0.6018
H287       H   -0.2083878055   -0.0057463512    0.0494969888         -0.3542
C288       C   -0.3015880584    0.0051245634   -0.0023268522         -0.3756
N289       N   -0.3331788896   -0.0040758749    0.0014135357          0.6201
N290       N   -0.3266517993   -0.0272602454    0.0071896492          0.6072
N291       N   -0.3040488101   -0.0192245568    0.0255591692          -0.377
C292       C   -0.3605466242    0.0051678222   -0.0108124453          0.6197
H293       H   -0.3004635846    0.0296541022   -0.0021563468         -0.3584
H294       H   -0.2927084754   -0.0023168883   -0.0241242298          0.6071
H295       H   -0.2945724346   -0.0162638910    0.0433963131         -0.3649
C296       C   -0.3851944837   -0.0000000000    0.0000000000          0.6221
C241       C    0.3851944837   -0.0000000000    0.0000000000          0.6223
C242       C    0.3790751801    0.0014770251    0.0293370103          0.6217
C243       C    0.3508938604    0.0034818011    0.0389901545         -0.3771
C244       C    0.3277447395    0.0040467205    0.0197889859         -0.3754
C245       C    0.3339757379    0.0024583737   -0.0095483411          -0.375
C246       C    0.3621711678    0.0003550260   -0.0193081909         -0.3762
C247       C    0.2956929723    0.0068714008    0.0314480215         -0.3736
Br248     Br    0.3450889183    0.0057125822    0.0808876702          0.6222
H249       H    0.3970597398    0.0012372895    0.0457851252          0.6205
H250       H    0.3659587758   -0.0008345811   -0.0433576182         -0.3757
H251       H    0.3160551145    0.0029181352   -0.0260617865         -0.3735
C252       C    0.2700034010   -0.0029444096    0.0103081313          0.6189
N253       N    0.2429318162   -0.0094812344    0.0284589843           0.612
N254       N    0.2577440722   -0.0166965643    0.0469405495          0.6044
N255       N    0.2778733327    0.0056181553    0.0484781134         -0.3758
C256       C    0.2175278001    0.0110851058    0.0223350125         -0.3694
H257       H    0.2654055281    0.0147694780   -0.0060853666         -0.3643
H258       H    0.2765888037   -0.0230907272   -0.0022205337          0.6018
H259       H    0.2916121945    0.0293806967    0.0402460820         -0.3542
C260       C    0.1984119416    0.0021833840   -0.0051873140         -0.3756
N261       N    0.1668211104   -0.0020333294    0.0038047879          0.6201
N262       N    0.1733482007   -0.0151364213    0.0237844652          0.6072
N263       N    0.1959511899    0.0032339647    0.0318181738          -0.377
C264       C    0.1394533758   -0.0035451537   -0.0114475869          0.6197
H265       H    0.1995364154    0.0203109852   -0.0217135785         -0.3584
H266       H    0.2072915246   -0.0180776019   -0.0161414605          0.6071
H267       H    0.2054275654    0.0175164048    0.0429060567         -0.3649
C268       C    0.1148055163   -0.0000000000    0.0000000000          0.6221
C213       C    0.0000000000    0.0000000000   -0.1148055163          0.6223
C214       C    0.0293682049    0.0005918781   -0.1209248199          0.6217
C215       C    0.0391385304   -0.0007283713   -0.1491061396         -0.3771
C216       C    0.0200247676   -0.0026435947   -0.1722552605         -0.3754
C217       C   -0.0093515899   -0.0031244496   -0.1660242621          -0.375
C218       C   -0.0192352955   -0.0017133848   -0.1378288322         -0.3762
C219       C    0.0318537268   -0.0046405054   -0.2043070277         -0.3736
Br220     Br    0.0810891409   -0.0000041567   -0.1549110817          0.6222
H221       H    0.0457586362    0.0019889176   -0.1029402602          0.6205
H222       H   -0.0433088022   -0.0022197376   -0.1340412242         -0.3757
H223       H   -0.0257917004   -0.0047455682   -0.1839448855         -0.3735
C224       C    0.0100752796    0.0036627667   -0.2299965990          0.6189
N225       N    0.0277209281    0.0114611403   -0.2570681838           0.612
N226       N    0.0456487036    0.0199596169   -0.2422559278          0.6044
N227       N    0.0487533432   -0.0021915011   -0.2221266673         -0.3758
C228       C    0.0230599591   -0.0094852854   -0.2824721999         -0.3694
H229       H   -0.0050305415   -0.0151612275   -0.2345944719         -0.3643
H230       H   -0.0038405436    0.0228771213   -0.2234111963          0.6018
H231       H    0.0422145477   -0.0264745995   -0.2083878055         -0.3542
C232       C   -0.0050207407   -0.0025431387   -0.3015880584         -0.3756
N233       N    0.0036522080    0.0022961306   -0.3331788896          0.6201
N234       N    0.0226598978    0.0167732247   -0.3266517993          0.6072
N235       N    0.0319668961   -0.0009860360   -0.3040488101          -0.377
C236       C   -0.0116687543    0.0027304821   -0.3605466242          0.6197
H237       H   -0.0202298749   -0.0217891665   -0.3004635846         -0.3584
H238       H   -0.0173740240    0.0168964411   -0.2927084754          0.6071
H239       H    0.0440327120   -0.0144524880   -0.2945724346         -0.3649
C240       C   -0.0000000000    0.0000000000   -0.3851944837          0.6221
C185       C   -0.0000000000   -0.0000000000    0.1148055163          0.6223
C186       C    0.0267793798   -0.0120708987    0.1209248199          0.6217
C187       C    0.0362839034   -0.0146912710    0.1491061396         -0.3771
C188       C    0.0194555329   -0.0054279044    0.1722552605         -0.3754
C189       C   -0.0073749200    0.0065440793    0.1660242621          -0.375
C190       C   -0.0170193694    0.0091254230    0.1378288322         -0.3762
C191       C    0.0311190821   -0.0082338893    0.2043070277         -0.3736
Br192     Br    0.0745841289   -0.0318222642    0.1549110817          0.6222
H193       H    0.0413063188   -0.0197888000    0.1029402602          0.6205
H194       H   -0.0389624681    0.0190395813    0.1340412242         -0.3757
H195       H   -0.0218596047    0.0144875778    0.1839448855         -0.3735
C196       C    0.0078292602   -0.0073232372    0.2299965990          0.6189
N197       N    0.0209982839   -0.0214214768    0.2570681838           0.612
N198       N    0.0341520181   -0.0362743725    0.2422559278          0.6044
N199       N    0.0457014708   -0.0171191916    0.2221266673         -0.3758
C200       C    0.0249324243   -0.0003264556    0.2824721999         -0.3694
H201       H    0.0013236322    0.0159190818    0.2345944719         -0.3643
H202       H   -0.0125112510   -0.0195340998    0.2234111963          0.6018
H203       H    0.0492180490    0.0077817802    0.2083878055         -0.3542
C204       C   -0.0036197353    0.0043096296    0.3015880584         -0.3756
N205       N    0.0024579609   -0.0035453162    0.3331788896          0.6201
N206       N    0.0142584524   -0.0243209492    0.3266517993          0.6072
N207       N    0.0297888544   -0.0116395388    0.3040488101          -0.377
C208       C   -0.0118041132    0.0020683980    0.3605466242          0.6197
H209       H   -0.0100547455    0.0279806666    0.3004635846         -0.3584
H210       H   -0.0226114828   -0.0087216558    0.2927084754          0.6071
H211       H    0.0461718516   -0.0039892677    0.2945724346         -0.3649
C212       C    0.0000000000    0.0000000000    0.3851944837          0.6221
loop_
_geom_bond_atom_site_label_1
_geom_bond_atom_site_label_2
_geom_bond_distance
_geom_bond_site_symmetry_2
_ccdc_geom_bond_type
Zn1          O5 1.942       .   S
Zn1          O6 1.922       .   S
Zn1         O10 1.922       .   S
Zn1         O17 1.922       .   S
Zn2          O5 1.942       .   S
Zn2          O7 1.922       .   S
Zn2          O9 1.922       .   S
Zn2         O13 1.922       .   S
Zn3          O5 1.942       .   S
Zn3          O8 1.922       .   S
Zn3         O11 1.922       .   S
Zn3         O14 1.922       .   S
Zn4          O5 1.942       .   S
Zn4         O12 1.922       .   S
Zn4         O15 1.922       .   S
Zn4         O16 1.922       .   S
O6          C18 1.304       .   A
O7          C19 1.304       .   A
O8          C20 1.304       .   A
O9          C18 1.304       .   A
O10         C20 1.304       .   A
O11         C19 1.304       .   A
O12         C21 1.304       .   A
O13         C22 1.304       .   A
O14         C21 1.304       .   A
O15         C22 1.304       .   A
O16         C23 1.304       .   A
O17         C23 1.304       .   A
C18        C185 1.540       .   S
C19        C268 1.540       .   S
C20        C352 1.540       .   S
C21        C213 1.540       .   S
C22        C324 1.540       .   S
C23        C269 1.540       .   S
Zn24        O28 1.942       .   S
Zn24        O29 1.922       .   S
Zn24        O33 1.922       .   S
Zn24        O40 1.922       .   S
Zn25        O28 1.942       .   S
Zn25        O30 1.922       .   S
Zn25        O32 1.922       .   S
Zn25        O36 1.922       .   S
Zn26        O28 1.942       .   S
Zn26        O31 1.922       .   S
Zn26        O34 1.922       .   S
Zn26        O37 1.922       .   S
Zn27        O28 1.942       .   S
Zn27        O35 1.922       .   S
Zn27        O38 1.922       .   S
Zn27        O39 1.922       .   S
O29         C41 1.304       .   A
O30         C42 1.304       .   A
O31         C43 1.304       .   A
O32         C41 1.304       .   A
O33         C43 1.304       .   A
O34         C42 1.304       .   A
O35         C44 1.304       .   A
O36         C45 1.304       .   A
O37         C44 1.304       .   A
O38         C45 1.304       .   A
O39         C46 1.304       .   A
O40         C46 1.304       .   A
C41        C212 1.540   1_655   S
C42        C353 1.540       .   S
C43        C409 1.540       .   S
C44        C240 1.540   1_656   S
C45        C464 1.540       .   S
C46        C381 1.540       .   S
Zn47        O51 1.942       .   S
Zn47        O52 1.922       .   S
Zn47        O56 1.922       .   S
Zn47        O63 1.922       .   S
Zn48        O51 1.942       .   S
Zn48        O53 1.922       .   S
Zn48        O55 1.922       .   S
Zn48        O59 1.922       .   S
Zn49        O51 1.942       .   S
Zn49        O54 1.922       .   S
Zn49        O57 1.922       .   S
Zn49        O60 1.922       .   S
Zn50        O51 1.942       .   S
Zn50        O58 1.922       .   S
Zn50        O61 1.922       .   S
Zn50        O62 1.922       .   S
O52         C64 1.304       .   A
O53         C65 1.304       .   A
O54         C66 1.304       .   A
O55         C64 1.304       .   A
O56         C66 1.304       .   A
O57         C65 1.304       .   A
O58         C67 1.304       .   A
O59         C68 1.304       .   A
O60         C67 1.304       .   A
O61         C68 1.304       .   A
O62         C69 1.304       .   A
O63         C69 1.304       .   A
C64        C297 1.540   1_655   S
C65        C465 1.540       .   S
C66        C521 1.540       .   S
C67        C325 1.540   1_665   S
C68        C549 1.540       .   S
C69        C493 1.540       .   S
Zn70        O74 1.942       .   S
Zn70        O75 1.922       .   S
Zn70        O79 1.922       .   S
Zn70        O86 1.922       .   S
Zn71        O74 1.942       .   S
Zn71        O76 1.922       .   S
Zn71        O78 1.922       .   S
Zn71        O82 1.922       .   S
Zn72        O74 1.942       .   S
Zn72        O77 1.922       .   S
Zn72        O80 1.922       .   S
Zn72        O83 1.922       .   S
Zn73        O74 1.942       .   S
Zn73        O81 1.922       .   S
Zn73        O84 1.922       .   S
Zn73        O85 1.922       .   S
O75         C87 1.304       .   A
O76         C88 1.304       .   A
O77         C89 1.304       .   A
O78         C87 1.304       .   A
O79         C89 1.304       .   A
O80         C88 1.304       .   A
O81         C90 1.304       .   A
O82         C91 1.304       .   A
O83         C90 1.304       .   A
O84         C91 1.304       .   A
O85         C92 1.304       .   A
O86         C92 1.304       .   A
C87        C436 1.540       .   S
C88        C492 1.540       .   S
C89        C605 1.540       .   S
C90        C437 1.540   1_565   S
C91        C577 1.540       .   S
C92        C520 1.540   1_556   S
Zn93        O97 1.942       .   S
Zn93        O98 1.922       .   S
Zn93       O102 1.922       .   S
Zn93       O109 1.922       .   S
Zn94        O97 1.942       .   S
Zn94        O99 1.922       .   S
Zn94       O101 1.922       .   S
Zn94       O105 1.922       .   S
Zn95        O97 1.942       .   S
Zn95       O100 1.922       .   S
Zn95       O103 1.922       .   S
Zn95       O106 1.922       .   S
Zn96        O97 1.942       .   S
Zn96       O104 1.922       .   S
Zn96       O107 1.922       .   S
Zn96       O108 1.922       .   S
O98        C110 1.304       .   A
O99        C111 1.304       .   A
O100       C112 1.304       .   A
O101       C110 1.304       .   A
O102       C112 1.304       .   A
O103       C111 1.304       .   A
O104       C113 1.304       .   A
O105       C114 1.304       .   A
O106       C113 1.304       .   A
O107       C114 1.304       .   A
O108       C115 1.304       .   A
O109       C115 1.304       .   A
C110       C241 1.540   1_565   S
C111       C660 1.540       .   S
C112       C744 1.540       .   S
C113       C296 1.540   1_665   S
C114       C716 1.540       .   S
C115       C688 1.540       .   S
Zn116      O120 1.942       .   S
Zn116      O121 1.922       .   S
Zn116      O125 1.922       .   S
Zn116      O132 1.922       .   S
Zn117      O120 1.942       .   S
Zn117      O122 1.922       .   S
Zn117      O124 1.922       .   S
Zn117      O128 1.922       .   S
Zn118      O120 1.942       .   S
Zn118      O123 1.922       .   S
Zn118      O126 1.922       .   S
Zn118      O129 1.922       .   S
Zn119      O120 1.942       .   S
Zn119      O127 1.922       .   S
Zn119      O130 1.922       .   S
Zn119      O131 1.922       .   S
O121       C133 1.304       .   A
O122       C134 1.304       .   A
O123       C135 1.304       .   A
O124       C133 1.304       .   A
O125       C135 1.304       .   A
O126       C134 1.304       .   A
O127       C136 1.304       .   A
O128       C137 1.304       .   A
O129       C136 1.304       .   A
O130       C137 1.304       .   A
O131       C138 1.304       .   A
O132       C138 1.304       .   A
C133       C380 1.540   1_465   S
C134       C633 1.540       .   S
C135       C745 1.540       .   S
C136       C408 1.540   1_565   S
C137       C773 1.540       .   S
C138       C661 1.540   1_556   S
Zn139      O143 1.942       .   S
Zn139      O144 1.922       .   S
Zn139      O148 1.922       .   S
Zn139      O155 1.922       .   S
Zn140      O143 1.942       .   S
Zn140      O145 1.922       .   S
Zn140      O147 1.922       .   S
Zn140      O151 1.922       .   S
Zn141      O143 1.942       .   S
Zn141      O146 1.922       .   S
Zn141      O149 1.922       .   S
Zn141      O152 1.922       .   S
Zn142      O143 1.942       .   S
Zn142      O150 1.922       .   S
Zn142      O153 1.922       .   S
Zn142      O154 1.922       .   S
O144       C156 1.304       .   A
O145       C157 1.304       .   A
O146       C158 1.304       .   A
O147       C156 1.304       .   A
O148       C158 1.304       .   A
O149       C157 1.304       .   A
O150       C159 1.304       .   A
O151       C160 1.304       .   A
O152       C159 1.304       .   A
O153       C160 1.304       .   A
O154       C161 1.304       .   A
O155       C161 1.304       .   A
C156       C548 1.540   1_455   S
C157       C689 1.540   1_545   S
C158       C829 1.540       .   S
C159       C576 1.540       .   S
C160       C828 1.540       .   S
C161       C717 1.540       .   S
Zn162      O166 1.942       .   S
Zn162      O167 1.922       .   S
Zn162      O171 1.922       .   S
Zn162      O178 1.922       .   S
Zn163      O166 1.942       .   S
Zn163      O168 1.922       .   S
Zn163      O170 1.922       .   S
Zn163      O174 1.922       .   S
Zn164      O166 1.942       .   S
Zn164      O169 1.922       .   S
Zn164      O172 1.922       .   S
Zn164      O175 1.922       .   S
Zn165      O166 1.942       .   S
Zn165      O173 1.922       .   S
Zn165      O176 1.922       .   S
Zn165      O177 1.922       .   S
O167       C179 1.304       .   A
O168       C180 1.304       .   A
O169       C181 1.304       .   A
O170       C179 1.304       .   A
O171       C181 1.304       .   A
O172       C180 1.304       .   A
O173       C182 1.304       .   A
O174       C183 1.304       .   A
O175       C182 1.304       .   A
O176       C183 1.304       .   A
O177       C184 1.304       .   A
O178       C184 1.304       .   A
C179       C604 1.540   1_455   S
C180       C800 1.540       .   S
C181       C856 1.540   1_556   S
C182       C632 1.540       .   S
C183       C801 1.540       .   S
C184       C772 1.540   1_545   S
C829       C830 0.027       .   A
C829       C834 0.027       .   A
C830       C831 0.027       .   A
C830       H837 0.022       .   A
C831       C832 0.027       .   A
C831      Br836 0.038       .   A
C832       C833 0.027       .   A
C832       C835 0.031       .   A
C833       C834 0.027       .   A
C833       H839 0.022       .   A
C834       H838 0.022       .   A
C835       C840 0.031       .   A
C835       N843 0.022       .   A
C835       H847 0.022       .   A
C840       N841 0.030       .   A
C840       H845 0.022       .   A
C840       H846 0.022       .   A
N841       N842 0.022       .   A
N841       C844 0.030       .   A
N842       N843 0.027       .   A
C844       C848 0.031       .   A
C844       N851 0.022       .   A
C844       H855 0.022       .   A
C848       N849 0.030       .   A
C848       H853 0.022       .   A
C848       H854 0.022       .   A
N849       N850 0.022       .   A
N849       C852 0.028       .   A
N850       N851 0.027       .   A
C852       C856 0.024       .   A
C801       C802 0.027       .   A
C801       C806 0.027       .   A
C802       C803 0.027       .   A
C802       H809 0.022       .   A
C803       C804 0.027       .   A
C803      Br808 0.038       .   A
C804       C805 0.027       .   A
C804       C807 0.031       .   A
C805       C806 0.027       .   A
C805       H811 0.022       .   A
C806       H810 0.022       .   A
C807       C812 0.031       .   A
C807       N815 0.022       .   A
C807       H819 0.022       .   A
C812       N813 0.030       .   A
C812       H817 0.022       .   A
C812       H818 0.022       .   A
N813       N814 0.022       .   A
N813       C816 0.030       .   A
N814       N815 0.027       .   A
C816       C820 0.031       .   A
C816       N823 0.022       .   A
C816       H827 0.022       .   A
C820       N821 0.030       .   A
C820       H825 0.022       .   A
C820       H826 0.022       .   A
N821       N822 0.022       .   A
N821       C824 0.028       .   A
N822       N823 0.027       .   A
C824       C828 0.024       .   A
C773       C774 0.027       .   A
C773       C778 0.027       .   A
C774       C775 0.027       .   A
C774       H781 0.022       .   A
C775       C776 0.027       .   A
C775      Br780 0.038       .   A
C776       C777 0.027       .   A
C776       C779 0.031       .   A
C777       C778 0.027       .   A
C777       H783 0.022       .   A
C778       H782 0.022       .   A
C779       C784 0.031       .   A
C779       N787 0.022       .   A
C779       H791 0.022       .   A
C784       N785 0.030       .   A
C784       H789 0.022       .   A
C784       H790 0.022       .   A
N785       N786 0.022       .   A
N785       C788 0.030       .   A
N786       N787 0.027       .   A
C788       C792 0.031       .   A
C788       N795 0.022       .   A
C788       H799 0.022       .   A
C792       N793 0.030       .   A
C792       H797 0.022       .   A
C792       H798 0.022       .   A
N793       N794 0.022       .   A
N793       C796 0.028       .   A
N794       N795 0.027       .   A
C796       C800 0.024       .   A
C745       C746 0.027       .   A
C745       C750 0.027       .   A
C746       C747 0.027       .   A
C746       H753 0.022       .   A
C747       C748 0.027       .   A
C747      Br752 0.038       .   A
C748       C749 0.027       .   A
C748       C751 0.031       .   A
C749       C750 0.027       .   A
C749       H755 0.022       .   A
C750       H754 0.022       .   A
C751       C756 0.031       .   A
C751       N759 0.022       .   A
C751       H763 0.022       .   A
C756       N757 0.030       .   A
C756       H761 0.022       .   A
C756       H762 0.022       .   A
N757       N758 0.022       .   A
N757       C760 0.030       .   A
N758       N759 0.027       .   A
C760       C764 0.031       .   A
C760       N767 0.022       .   A
C760       H771 0.022       .   A
C764       N765 0.030       .   A
C764       H769 0.022       .   A
C764       H770 0.022       .   A
N765       N766 0.022       .   A
N765       C768 0.028       .   A
N766       N767 0.027       .   A
C768       C772 0.024       .   A
C717       C718 0.027       .   A
C717       C722 0.027       .   A
C718       C719 0.027       .   A
C718       H725 0.022       .   A
C719       C720 0.027       .   A
C719      Br724 0.038       .   A
C720       C721 0.027       .   A
C720       C723 0.031       .   A
C721       C722 0.027       .   A
C721       H727 0.022       .   A
C722       H726 0.022       .   A
C723       C728 0.031       .   A
C723       N731 0.022       .   A
C723       H735 0.022       .   A
C728       N729 0.030       .   A
C728       H733 0.022       .   A
C728       H734 0.022       .   A
N729       N730 0.022       .   A
N729       C732 0.030       .   A
N730       N731 0.027       .   A
C732       C736 0.031       .   A
C732       N739 0.022       .   A
C732       H743 0.022       .   A
C736       N737 0.030       .   A
C736       H741 0.022       .   A
C736       H742 0.022       .   A
N737       N738 0.022       .   A
N737       C740 0.028       .   A
N738       N739 0.027       .   A
C740       C744 0.024       .   A
C689       C690 0.027       .   A
C689       C694 0.027       .   A
C690       C691 0.027       .   A
C690       H697 0.022       .   A
C691       C692 0.027       .   A
C691      Br696 0.038       .   A
C692       C693 0.027       .   A
C692       C695 0.031       .   A
C693       C694 0.027       .   A
C693       H699 0.022       .   A
C694       H698 0.022       .   A
C695       C700 0.031       .   A
C695       N703 0.022       .   A
C695       H707 0.022       .   A
C700       N701 0.030       .   A
C700       H705 0.022       .   A
C700       H706 0.022       .   A
N701       N702 0.022       .   A
N701       C704 0.030       .   A
N702       N703 0.027       .   A
C704       C708 0.031       .   A
C704       N711 0.022       .   A
C704       H715 0.022       .   A
C708       N709 0.030       .   A
C708       H713 0.022       .   A
C708       H714 0.022       .   A
N709       N710 0.022       .   A
N709       C712 0.028       .   A
N710       N711 0.027       .   A
C712       C716 0.024       .   A
C661       C662 0.027       .   A
C661       C666 0.027       .   A
C662       C663 0.027       .   A
C662       H669 0.022       .   A
C663       C664 0.027       .   A
C663      Br668 0.038       .   A
C664       C665 0.027       .   A
C664       C667 0.031       .   A
C665       C666 0.027       .   A
C665       H671 0.022       .   A
C666       H670 0.022       .   A
C667       C672 0.031       .   A
C667       N675 0.022       .   A
C667       H679 0.022       .   A
C672       N673 0.030       .   A
C672       H677 0.022       .   A
C672       H678 0.022       .   A
N673       N674 0.022       .   A
N673       C676 0.030       .   A
N674       N675 0.027       .   A
C676       C680 0.031       .   A
C676       N683 0.022       .   A
C676       H687 0.022       .   A
C680       N681 0.030       .   A
C680       H685 0.022       .   A
C680       H686 0.022       .   A
N681       N682 0.022       .   A
N681       C684 0.028       .   A
N682       N683 0.027       .   A
C684       C688 0.024       .   A
C633       C634 0.027       .   A
C633       C638 0.027       .   A
C634       C635 0.027       .   A
C634       H641 0.022       .   A
C635       C636 0.027       .   A
C635      Br640 0.038       .   A
C636       C637 0.027       .   A
C636       C639 0.031       .   A
C637       C638 0.027       .   A
C637       H643 0.022       .   A
C638       H642 0.022       .   A
C639       C644 0.031       .   A
C639       N647 0.022       .   A
C639       H651 0.022       .   A
C644       N645 0.030       .   A
C644       H649 0.022       .   A
C644       H650 0.022       .   A
N645       N646 0.022       .   A
N645       C648 0.030       .   A
N646       N647 0.027       .   A
C648       C652 0.031       .   A
C648       N655 0.022       .   A
C648       H659 0.022       .   A
C652       N653 0.030       .   A
C652       H657 0.022       .   A
C652       H658 0.022       .   A
N653       N654 0.022       .   A
N653       C656 0.028       .   A
N654       N655 0.027       .   A
C656       C660 0.024       .   A
C605       C606 0.027       .   A
C605       C610 0.027       .   A
C606       C607 0.027       .   A
C606       H613 0.022       .   A
C607       C608 0.027       .   A
C607      Br612 0.038       .   A
C608       C609 0.027       .   A
C608       C611 0.031       .   A
C609       C610 0.027       .   A
C609       H615 0.022       .   A
C610       H614 0.022       .   A
C611       C616 0.031       .   A
C611       N619 0.022       .   A
C611       H623 0.022       .   A
C616       N617 0.030       .   A
C616       H621 0.022       .   A
C616       H622 0.022       .   A
N617       N618 0.022       .   A
N617       C620 0.030       .   A
N618       N619 0.027       .   A
C620       C624 0.031       .   A
C620       N627 0.022       .   A
C620       H631 0.022       .   A
C624       N625 0.030       .   A
C624       H629 0.022       .   A
C624       H630 0.022       .   A
N625       N626 0.022       .   A
N625       C628 0.028       .   A
N626       N627 0.027       .   A
C628       C632 0.024       .   A
C577       C578 0.027       .   A
C577       C582 0.027       .   A
C578       C579 0.027       .   A
C578       H585 0.022       .   A
C579       C580 0.027       .   A
C579      Br584 0.038       .   A
C580       C581 0.027       .   A
C580       C583 0.031       .   A
C581       C582 0.027       .   A
C581       H587 0.022       .   A
C582       H586 0.022       .   A
C583       C588 0.031       .   A
C583       N591 0.022       .   A
C583       H595 0.022       .   A
C588       N589 0.030       .   A
C588       H593 0.022       .   A
C588       H594 0.022       .   A
N589       N590 0.022       .   A
N589       C592 0.030       .   A
N590       N591 0.027       .   A
C592       C596 0.031       .   A
C592       N599 0.022       .   A
C592       H603 0.022       .   A
C596       N597 0.030       .   A
C596       H601 0.022       .   A
C596       H602 0.022       .   A
N597       N598 0.022       .   A
N597       C600 0.028       .   A
N598       N599 0.027       .   A
C600       C604 0.024       .   A
C549       C550 0.027       .   A
C549       C554 0.027       .   A
C550       C551 0.027       .   A
C550       H557 0.022       .   A
C551       C552 0.027       .   A
C551      Br556 0.038       .   A
C552       C553 0.027       .   A
C552       C555 0.031       .   A
C553       C554 0.027       .   A
C553       H559 0.022       .   A
C554       H558 0.022       .   A
C555       C560 0.031       .   A
C555       N563 0.022       .   A
C555       H567 0.022       .   A
C560       N561 0.030       .   A
C560       H565 0.022       .   A
C560       H566 0.022       .   A
N561       N562 0.022       .   A
N561       C564 0.030       .   A
N562       N563 0.027       .   A
C564       C568 0.031       .   A
C564       N571 0.022       .   A
C564       H575 0.022       .   A
C568       N569 0.030       .   A
C568       H573 0.022       .   A
C568       H574 0.022       .   A
N569       N570 0.022       .   A
N569       C572 0.028       .   A
N570       N571 0.027       .   A
C572       C576 0.024       .   A
C521       C522 0.027       .   A
C521       C526 0.027       .   A
C522       C523 0.027       .   A
C522       H529 0.022       .   A
C523       C524 0.027       .   A
C523      Br528 0.038       .   A
C524       C525 0.027       .   A
C524       C527 0.031       .   A
C525       C526 0.027       .   A
C525       H531 0.022       .   A
C526       H530 0.022       .   A
C527       C532 0.031       .   A
C527       N535 0.022       .   A
C527       H539 0.022       .   A
C532       N533 0.030       .   A
C532       H537 0.022       .   A
C532       H538 0.022       .   A
N533       N534 0.022       .   A
N533       C536 0.030       .   A
N534       N535 0.027       .   A
C536       C540 0.031       .   A
C536       N543 0.022       .   A
C536       H547 0.022       .   A
C540       N541 0.030       .   A
C540       H545 0.022       .   A
C540       H546 0.022       .   A
N541       N542 0.022       .   A
N541       C544 0.028       .   A
N542       N543 0.027       .   A
C544       C548 0.024       .   A
C493       C494 0.027       .   A
C493       C498 0.027       .   A
C494       C495 0.027       .   A
C494       H501 0.022       .   A
C495       C496 0.027       .   A
C495      Br500 0.038       .   A
C496       C497 0.027       .   A
C496       C499 0.031       .   A
C497       C498 0.027       .   A
C497       H503 0.022       .   A
C498       H502 0.022       .   A
C499       C504 0.031       .   A
C499       N507 0.022       .   A
C499       H511 0.022       .   A
C504       N505 0.030       .   A
C504       H509 0.022       .   A
C504       H510 0.022       .   A
N505       N506 0.022       .   A
N505       C508 0.030       .   A
N506       N507 0.027       .   A
C508       C512 0.031       .   A
C508       N515 0.022       .   A
C508       H519 0.022       .   A
C512       N513 0.030       .   A
C512       H517 0.022       .   A
C512       H518 0.022       .   A
N513       N514 0.022       .   A
N513       C516 0.028       .   A
N514       N515 0.027       .   A
C516       C520 0.024       .   A
C465       C466 0.027       .   A
C465       C470 0.027       .   A
C466       C467 0.027       .   A
C466       H473 0.022       .   A
C467       C468 0.027       .   A
C467      Br472 0.038       .   A
C468       C469 0.027       .   A
C468       C471 0.031       .   A
C469       C470 0.027       .   A
C469       H475 0.022       .   A
C470       H474 0.022       .   A
C471       C476 0.031       .   A
C471       N479 0.022       .   A
C471       H483 0.022       .   A
C476       N477 0.030       .   A
C476       H481 0.022       .   A
C476       H482 0.022       .   A
N477       N478 0.022       .   A
N477       C480 0.030       .   A
N478       N479 0.027       .   A
C480       C484 0.031       .   A
C480       N487 0.022       .   A
C480       H491 0.022       .   A
C484       N485 0.030       .   A
C484       H489 0.022       .   A
C484       H490 0.022       .   A
N485       N486 0.022       .   A
N485       C488 0.028       .   A
N486       N487 0.027       .   A
C488       C492 0.024       .   A
C437       C438 0.027       .   A
C437       C442 0.027       .   A
C438       C439 0.027       .   A
C438       H445 0.022       .   A
C439       C440 0.027       .   A
C439      Br444 0.038       .   A
C440       C441 0.027       .   A
C440       C443 0.031       .   A
C441       C442 0.027       .   A
C441       H447 0.022       .   A
C442       H446 0.022       .   A
C443       C448 0.031       .   A
C443       N451 0.022       .   A
C443       H455 0.022       .   A
C448       N449 0.030       .   A
C448       H453 0.022       .   A
C448       H454 0.022       .   A
N449       N450 0.022       .   A
N449       C452 0.030       .   A
N450       N451 0.027       .   A
C452       C456 0.031       .   A
C452       N459 0.022       .   A
C452       H463 0.022       .   A
C456       N457 0.030       .   A
C456       H461 0.022       .   A
C456       H462 0.022       .   A
N457       N458 0.022       .   A
N457       C460 0.028       .   A
N458       N459 0.027       .   A
C460       C464 0.024       .   A
C409       C410 0.027       .   A
C409       C414 0.027       .   A
C410       C411 0.027       .   A
C410       H417 0.022       .   A
C411       C412 0.027       .   A
C411      Br416 0.038       .   A
C412       C413 0.027       .   A
C412       C415 0.031       .   A
C413       C414 0.027       .   A
C413       H419 0.022       .   A
C414       H418 0.022       .   A
C415       C420 0.031       .   A
C415       N423 0.022       .   A
C415       H427 0.022       .   A
C420       N421 0.030       .   A
C420       H425 0.022       .   A
C420       H426 0.022       .   A
N421       N422 0.022       .   A
N421       C424 0.030       .   A
N422       N423 0.027       .   A
C424       C428 0.031       .   A
C424       N431 0.022       .   A
C424       H435 0.022       .   A
C428       N429 0.030       .   A
C428       H433 0.022       .   A
C428       H434 0.022       .   A
N429       N430 0.022       .   A
N429       C432 0.028       .   A
N430       N431 0.027       .   A
C432       C436 0.024       .   A
C381       C382 0.027       .   A
C381       C386 0.027       .   A
C382       C383 0.027       .   A
C382       H389 0.022       .   A
C383       C384 0.027       .   A
C383      Br388 0.038       .   A
C384       C385 0.027       .   A
C384       C387 0.031       .   A
C385       C386 0.027       .   A
C385       H391 0.022       .   A
C386       H390 0.022       .   A
C387       C392 0.031       .   A
C387       N395 0.022       .   A
C387       H399 0.022       .   A
C392       N393 0.030       .   A
C392       H397 0.022       .   A
C392       H398 0.022       .   A
N393       N394 0.022       .   A
N393       C396 0.030       .   A
N394       N395 0.027       .   A
C396       C400 0.031       .   A
C396       N403 0.022       .   A
C396       H407 0.022       .   A
C400       N401 0.030       .   A
C400       H405 0.022       .   A
C400       H406 0.022       .   A
N401       N402 0.022       .   A
N401       C404 0.028       .   A
N402       N403 0.027       .   A
C404       C408 0.024       .   A
C353       C354 0.027       .   A
C353       C358 0.027       .   A
C354       C355 0.027       .   A
C354       H361 0.022       .   A
C355       C356 0.027       .   A
C355      Br360 0.038       .   A
C356       C357 0.027       .   A
C356       C359 0.031       .   A
C357       C358 0.027       .   A
C357       H363 0.022       .   A
C358       H362 0.022       .   A
C359       C364 0.031       .   A
C359       N367 0.022       .   A
C359       H371 0.022       .   A
C364       N365 0.030       .   A
C364       H369 0.022       .   A
C364       H370 0.022       .   A
N365       N366 0.022       .   A
N365       C368 0.030       .   A
N366       N367 0.027       .   A
C368       C372 0.031       .   A
C368       N375 0.022       .   A
C368       H379 0.022       .   A
C372       N373 0.030       .   A
C372       H377 0.022       .   A
C372       H378 0.022       .   A
N373       N374 0.022       .   A
N373       C376 0.028       .   A
N374       N375 0.027       .   A
C376       C380 0.024       .   A
C325       C326 0.027       .   A
C325       C330 0.027       .   A
C326       C327 0.027       .   A
C326       H333 0.022       .   A
C327       C328 0.027       .   A
C327      Br332 0.038       .   A
C328       C329 0.027       .   A
C328       C331 0.031       .   A
C329       C330 0.027       .   A
C329       H335 0.022       .   A
C330       H334 0.022       .   A
C331       C336 0.031       .   A
C331       N339 0.022       .   A
C331       H343 0.022       .   A
C336       N337 0.030       .   A
C336       H341 0.022       .   A
C336       H342 0.022       .   A
N337       N338 0.022       .   A
N337       C340 0.030       .   A
N338       N339 0.027       .   A
C340       C344 0.031       .   A
C340       N347 0.022       .   A
C340       H351 0.022       .   A
C344       N345 0.030       .   A
C344       H349 0.022       .   A
C344       H350 0.022       .   A
N345       N346 0.022       .   A
N345       C348 0.028       .   A
N346       N347 0.027       .   A
C348       C352 0.024       .   A
C297       C298 0.027       .   A
C297       C302 0.027       .   A
C298       C299 0.027       .   A
C298       H305 0.022       .   A
C299       C300 0.027       .   A
C299      Br304 0.038       .   A
C300       C301 0.027       .   A
C300       C303 0.031       .   A
C301       C302 0.027       .   A
C301       H307 0.022       .   A
C302       H306 0.022       .   A
C303       C308 0.031       .   A
C303       N311 0.022       .   A
C303       H315 0.022       .   A
C308       N309 0.030       .   A
C308       H313 0.022       .   A
C308       H314 0.022       .   A
N309       N310 0.022       .   A
N309       C312 0.030       .   A
N310       N311 0.027       .   A
C312       C316 0.031       .   A
C312       N319 0.022       .   A
C312       H323 0.022       .   A
C316       N317 0.030       .   A
C316       H321 0.022       .   A
C316       H322 0.022       .   A
N317       N318 0.022       .   A
N317       C320 0.028       .   A
N318       N319 0.027       .   A
C320       C324 0.024       .   A
C269       C270 0.027       .   A
C269       C274 0.027       .   A
C270       C271 0.027       .   A
C270       H277 0.022       .   A
C271       C272 0.027       .   A
C271      Br276 0.038       .   A
C272       C273 0.027       .   A
C272       C275 0.031       .   A
C273       C274 0.027       .   A
C273       H279 0.022       .   A
C274       H278 0.022       .   A
C275       C280 0.031       .   A
C275       N283 0.022       .   A
C275       H287 0.022       .   A
C280       N281 0.030       .   A
C280       H285 0.022       .   A
C280       H286 0.022       .   A
N281       N282 0.022       .   A
N281       C284 0.030       .   A
N282       N283 0.027       .   A
C284       C288 0.031       .   A
C284       N291 0.022       .   A
C284       H295 0.022       .   A
C288       N289 0.030       .   A
C288       H293 0.022       .   A
C288       H294 0.022       .   A
N289       N290 0.022       .   A
N289       C292 0.028       .   A
N290       N291 0.027       .   A
C292       C296 0.024       .   A
C241       C242 0.027       .   A
C241       C246 0.027       .   A
C242       C243 0.027       .   A
C242       H249 0.022       .   A
C243       C244 0.027       .   A
C243      Br248 0.038       .   A
C244       C245 0.027       .   A
C244       C247 0.031       .   A
C245       C246 0.027       .   A
C245       H251 0.022       .   A
C246       H250 0.022       .   A
C247       C252 0.031       .   A
C247       N255 0.022       .   A
C247       H259 0.022       .   A
C252       N253 0.030       .   A
C252       H257 0.022       .   A
C252       H258 0.022       .   A
N253       N254 0.022       .   A
N253       C256 0.030       .   A
N254       N255 0.027       .   A
C256       C260 0.031       .   A
C256       N263 0.022       .   A
C256       H267 0.022       .   A
C260       N261 0.030       .   A
C260       H265 0.022       .   A
C260       H266 0.022       .   A
N261       N262 0.022       .   A
N261       C264 0.028       .   A
N262       N263 0.027       .   A
C264       C268 0.024       .   A
C213       C214 0.027       .   A
C213       C218 0.027       .   A
C214       C215 0.027       .   A
C214       H221 0.022       .   A
C215       C216 0.027       .   A
C215      Br220 0.038       .   A
C216       C217 0.027       .   A
C216       C219 0.031       .   A
C217       C218 0.027       .   A
C217       H223 0.022       .   A
C218       H222 0.022       .   A
C219       C224 0.031       .   A
C219       N227 0.022       .   A
C219       H231 0.022       .   A
C224       N225 0.030       .   A
C224       H229 0.022       .   A
C224       H230 0.022       .   A
N225       N226 0.022       .   A
N225       C228 0.030       .   A
N226       N227 0.027       .   A
C228       C232 0.031       .   A
C228       N235 0.022       .   A
C228       H239 0.022       .   A
C232       N233 0.030       .   A
C232       H237 0.022       .   A
C232       H238 0.022       .   A
N233       N234 0.022       .   A
N233       C236 0.028       .   A
N234       N235 0.027       .   A
C236       C240 0.024       .   A
C185       C186 0.027       .   A
C185       C190 0.027       .   A
C186       C187 0.027       .   A
C186       H193 0.022       .   A
C187       C188 0.027       .   A
C187      Br192 0.038       .   A
C188       C189 0.027       .   A
C188       C191 0.031       .   A
C189       C190 0.027       .   A
C189       H195 0.022       .   A
C190       H194 0.022       .   A
C191       C196 0.031       .   A
C191       N199 0.022       .   A
C191       H203 0.022       .   A
C196       N197 0.030       .   A
C196       H201 0.022       .   A
C196       H202 0.022       .   A
N197       N198 0.022       .   A
N197       C200 0.030       .   A
N198       N199 0.027       .   A
C200       C204 0.031       .   A
C200       N207 0.022       .   A
C200       H211 0.022       .   A
C204       N205 0.030       .   A
C204       H209 0.022       .   A
C204       H210 0.022       .   A
N205       N206 0.022       .   A
N205       C208 0.028       .   A
N206       N207 0.027       .   A
C208       C212 0.024       .   A
