data_pcu_v1-6c_Zn_1_Ch_1-49_fer_tobacco
_audit_creation_date              2021-04-07
_audit_creation_method            'tobacco_3.0'
_symmetry_space_group_name_H-M    'P1'
_symmetry_Int_Tables_number       1
_symmetry_cell_setting            triclinic
loop_
_symmetry_equiv_pos_as_xyz
  x,y,z
_cell_length_a                    38.58687791396309
_cell_length_b                    38.58687791396309
_cell_length_c                    38.58687791396309
_cell_angle_alpha                 90.0
_cell_angle_beta                  90.0
_cell_angle_gamma                 90.0
loop_
_atom_site_label
_atom_site_type_symbol
_atom_site_fract_x
_atom_site_fract_y
_atom_site_fract_z
_atom_site_charge
Zn1       Zn   -0.0290565099   -0.0290565099    0.0290565099          1.4972
Zn2       Zn    0.0290565099    0.0290565099    0.0290565099          1.4936
Zn3       Zn    0.0290565099   -0.0290565099   -0.0290565099          1.4911
Zn4       Zn   -0.0290565099    0.0290565099   -0.0290565099          1.4948
O5         O    0.0000000000    0.0000000000    0.0000000000         -2.0922
O6         O   -0.0213544097   -0.0213544097    0.0776585244         -0.9985
O7         O    0.0776585244    0.0213544097    0.0213544097         -0.9967
O8         O    0.0213544097   -0.0776585244   -0.0213544097         -0.9919
O9         O    0.0213544097    0.0213544097    0.0776585244         -0.9987
O10        O   -0.0213544097   -0.0776585244    0.0213544097         -0.9947
O11        O    0.0776585244   -0.0213544097   -0.0213544097         -1.0005
O12        O   -0.0213544097    0.0213544097   -0.0776585244         -0.9944
O13        O    0.0213544097    0.0776585244    0.0213544097          -1.002
O14        O    0.0213544097   -0.0213544097   -0.0776585244         -0.9959
O15        O   -0.0213544097    0.0776585244   -0.0213544097         -1.0005
O16        O   -0.0776585244    0.0213544097   -0.0213544097         -0.9996
O17        O   -0.0776585244   -0.0213544097    0.0213544097         -0.9975
C18        C   -0.0000000000   -0.0000000000    0.0928502173          0.5204
C19        C    0.0928502173   -0.0000000000   -0.0000000000          0.5253
C20        C   -0.0000000000   -0.0928502173    0.0000000000          0.5149
C21        C    0.0000000000    0.0000000000   -0.0928502173          0.5186
C22        C    0.0000000000    0.0928502173   -0.0000000000            0.53
C23        C   -0.0928502173    0.0000000000    0.0000000000          0.5205
Zn24      Zn    0.9709434901    0.0290565099    0.4709434901          1.4972
Zn25      Zn    1.0290565099   -0.0290565099    0.4709434901          1.4936
Zn26      Zn    1.0290565099    0.0290565099    0.5290565099          1.4911
Zn27      Zn    0.9709434901   -0.0290565099    0.5290565099          1.4948
O28        O    1.0000000000    0.0000000000    0.5000000000         -2.0922
O29        O    0.9786455903    0.0213544097    0.4223414756         -0.9985
O30        O    1.0776585244   -0.0213544097    0.4786455903         -0.9967
O31        O    1.0213544097    0.0776585244    0.5213544097         -0.9919
O32        O    1.0213544097   -0.0213544097    0.4223414756         -0.9987
O33        O    0.9786455903    0.0776585244    0.4786455903         -0.9947
O34        O    1.0776585244    0.0213544097    0.5213544097         -1.0005
O35        O    0.9786455903   -0.0213544097    0.5776585244         -0.9944
O36        O    1.0213544097   -0.0776585244    0.4786455903          -1.002
O37        O    1.0213544097    0.0213544097    0.5776585244         -0.9959
O38        O    0.9786455903   -0.0776585244    0.5213544097         -1.0005
O39        O    0.9223414756   -0.0213544097    0.5213544097         -0.9996
O40        O    0.9223414756    0.0213544097    0.4786455903         -0.9975
C41        C    1.0000000000    0.0000000000    0.4071497827          0.5204
C42        C    1.0928502173    0.0000000000    0.5000000000          0.5253
C43        C    1.0000000000    0.0928502173    0.5000000000          0.5149
C44        C    1.0000000000    0.0000000000    0.5928502173          0.5186
C45        C    1.0000000000   -0.0928502173    0.5000000000            0.53
C46        C    0.9071497827    0.0000000000    0.5000000000          0.5205
Zn47      Zn    0.9709434901    0.4709434901   -0.0290565099          1.4972
Zn48      Zn    1.0290565099    0.4709434901    0.0290565099          1.4936
Zn49      Zn    1.0290565099    0.5290565099   -0.0290565099          1.4911
Zn50      Zn    0.9709434901    0.5290565099    0.0290565099          1.4948
O51        O    1.0000000000    0.5000000000    0.0000000000         -2.0922
O52        O    0.9786455903    0.4223414756   -0.0213544097         -0.9985
O53        O    1.0776585244    0.4786455903    0.0213544097         -0.9967
O54        O    1.0213544097    0.5213544097   -0.0776585244         -0.9919
O55        O    1.0213544097    0.4223414756    0.0213544097         -0.9987
O56        O    0.9786455903    0.4786455903   -0.0776585244         -0.9947
O57        O    1.0776585244    0.5213544097   -0.0213544097         -1.0005
O58        O    0.9786455903    0.5776585244    0.0213544097         -0.9944
O59        O    1.0213544097    0.4786455903    0.0776585244          -1.002
O60        O    1.0213544097    0.5776585244   -0.0213544097         -0.9959
O61        O    0.9786455903    0.5213544097    0.0776585244         -1.0005
O62        O    0.9223414756    0.5213544097    0.0213544097         -0.9996
O63        O    0.9223414756    0.4786455903   -0.0213544097         -0.9975
C64        C    1.0000000000    0.4071497827    0.0000000000          0.5204
C65        C    1.0928502173    0.5000000000    0.0000000000          0.5253
C66        C    1.0000000000    0.5000000000   -0.0928502173          0.5149
C67        C    1.0000000000    0.5928502173    0.0000000000          0.5186
C68        C    1.0000000000    0.5000000000    0.0928502173            0.53
C69        C    0.9071497827    0.5000000000    0.0000000000          0.5205
Zn70      Zn    0.9709434901    0.4709434901    0.5290565099          1.4972
Zn71      Zn    1.0290565099    0.4709434901    0.4709434901          1.4936
Zn72      Zn    0.9709434901    0.5290565099    0.4709434901          1.4911
Zn73      Zn    1.0290565099    0.5290565099    0.5290565099          1.4948
O74        O    1.0000000000    0.5000000000    0.5000000000         -2.0922
O75        O    0.9786455903    0.4223414756    0.5213544097         -0.9985
O76        O    1.0213544097    0.4786455903    0.4223414756         -0.9967
O77        O    0.9223414756    0.5213544097    0.4786455903         -0.9919
O78        O    1.0213544097    0.4223414756    0.4786455903         -0.9987
O79        O    0.9223414756    0.4786455903    0.5213544097         -0.9947
O80        O    0.9786455903    0.5213544097    0.4223414756         -1.0005
O81        O    1.0213544097    0.5776585244    0.5213544097         -0.9944
O82        O    1.0776585244    0.4786455903    0.4786455903          -1.002
O83        O    0.9786455903    0.5776585244    0.4786455903         -0.9959
O84        O    1.0776585244    0.5213544097    0.5213544097         -1.0005
O85        O    1.0213544097    0.5213544097    0.5776585244         -0.9996
O86        O    0.9786455903    0.4786455903    0.5776585244         -0.9975
C87        C    1.0000000000    0.4071497827    0.5000000000          0.5204
C88        C    1.0000000000    0.5000000000    0.4071497827          0.5253
C89        C    0.9071497827    0.5000000000    0.5000000000          0.5149
C90        C    1.0000000000    0.5928502173    0.5000000000          0.5186
C91        C    1.0928502173    0.5000000000    0.5000000000            0.53
C92        C    1.0000000000    0.5000000000    0.5928502173          0.5205
Zn93      Zn    0.5290565099    1.0290565099    0.0290565099          1.4972
Zn94      Zn    0.4709434901    0.9709434901    0.0290565099          1.4936
Zn95      Zn    0.4709434901    1.0290565099   -0.0290565099          1.4911
Zn96      Zn    0.5290565099    0.9709434901   -0.0290565099          1.4948
O97        O    0.5000000000    1.0000000000    0.0000000000         -2.0922
O98        O    0.5213544097    1.0213544097    0.0776585244         -0.9985
O99        O    0.4223414756    0.9786455903    0.0213544097         -0.9967
O100       O    0.4786455903    1.0776585244   -0.0213544097         -0.9919
O101       O    0.4786455903    0.9786455903    0.0776585244         -0.9987
O102       O    0.5213544097    1.0776585244    0.0213544097         -0.9947
O103       O    0.4223414756    1.0213544097   -0.0213544097         -1.0005
O104       O    0.5213544097    0.9786455903   -0.0776585244         -0.9944
O105       O    0.4786455903    0.9223414756    0.0213544097          -1.002
O106       O    0.4786455903    1.0213544097   -0.0776585244         -0.9959
O107       O    0.5213544097    0.9223414756   -0.0213544097         -1.0005
O108       O    0.5776585244    0.9786455903   -0.0213544097         -0.9996
O109       O    0.5776585244    1.0213544097    0.0213544097         -0.9975
C110       C    0.5000000000    1.0000000000    0.0928502173          0.5204
C111       C    0.4071497827    1.0000000000    0.0000000000          0.5253
C112       C    0.5000000000    1.0928502173    0.0000000000          0.5149
C113       C    0.5000000000    1.0000000000   -0.0928502173          0.5186
C114       C    0.5000000000    0.9071497827    0.0000000000            0.53
C115       C    0.5928502173    1.0000000000    0.0000000000          0.5205
Zn116     Zn    0.4709434901    1.0290565099    0.5290565099          1.4972
Zn117     Zn    0.4709434901    0.9709434901    0.4709434901          1.4936
Zn118     Zn    0.5290565099    1.0290565099    0.4709434901          1.4911
Zn119     Zn    0.5290565099    0.9709434901    0.5290565099          1.4948
O120       O    0.5000000000    1.0000000000    0.5000000000         -2.0922
O121       O    0.4223414756    1.0213544097    0.5213544097         -0.9985
O122       O    0.4786455903    0.9786455903    0.4223414756         -0.9967
O123       O    0.5213544097    1.0776585244    0.4786455903         -0.9919
O124       O    0.4223414756    0.9786455903    0.4786455903         -0.9987
O125       O    0.4786455903    1.0776585244    0.5213544097         -0.9947
O126       O    0.5213544097    1.0213544097    0.4223414756         -1.0005
O127       O    0.5776585244    0.9786455903    0.5213544097         -0.9944
O128       O    0.4786455903    0.9223414756    0.4786455903          -1.002
O129       O    0.5776585244    1.0213544097    0.4786455903         -0.9959
O130       O    0.5213544097    0.9223414756    0.5213544097         -1.0005
O131       O    0.5213544097    0.9786455903    0.5776585244         -0.9996
O132       O    0.4786455903    1.0213544097    0.5776585244         -0.9975
C133       C    0.4071497827    1.0000000000    0.5000000000          0.5204
C134       C    0.5000000000    1.0000000000    0.4071497827          0.5253
C135       C    0.5000000000    1.0928502173    0.5000000000          0.5149
C136       C    0.5928502173    1.0000000000    0.5000000000          0.5186
C137       C    0.5000000000    0.9071497827    0.5000000000            0.53
C138       C    0.5000000000    1.0000000000    0.5928502173          0.5205
Zn139     Zn    0.4709434901    0.5290565099   -0.0290565099          1.4972
Zn140     Zn    0.4709434901    0.4709434901    0.0290565099          1.4936
Zn141     Zn    0.5290565099    0.4709434901   -0.0290565099          1.4911
Zn142     Zn    0.5290565099    0.5290565099    0.0290565099          1.4948
O143       O    0.5000000000    0.5000000000    0.0000000000         -2.0922
O144       O    0.4223414756    0.5213544097   -0.0213544097         -0.9985
O145       O    0.4786455903    0.4223414756    0.0213544097         -0.9967
O146       O    0.5213544097    0.4786455903   -0.0776585244         -0.9919
O147       O    0.4223414756    0.4786455903    0.0213544097         -0.9987
O148       O    0.4786455903    0.5213544097   -0.0776585244         -0.9947
O149       O    0.5213544097    0.4223414756   -0.0213544097         -1.0005
O150       O    0.5776585244    0.5213544097    0.0213544097         -0.9944
O151       O    0.4786455903    0.4786455903    0.0776585244          -1.002
O152       O    0.5776585244    0.4786455903   -0.0213544097         -0.9959
O153       O    0.5213544097    0.5213544097    0.0776585244         -1.0005
O154       O    0.5213544097    0.5776585244    0.0213544097         -0.9996
O155       O    0.4786455903    0.5776585244   -0.0213544097         -0.9975
C156       C    0.4071497827    0.5000000000    0.0000000000          0.5204
C157       C    0.5000000000    0.4071497827    0.0000000000          0.5253
C158       C    0.5000000000    0.5000000000   -0.0928502173          0.5149
C159       C    0.5928502173    0.5000000000    0.0000000000          0.5186
C160       C    0.5000000000    0.5000000000    0.0928502173            0.53
C161       C    0.5000000000    0.5928502173    0.0000000000          0.5205
Zn162     Zn    0.4709434901    0.5290565099    0.4709434901          1.4972
Zn163     Zn    0.4709434901    0.4709434901    0.5290565099          1.4936
Zn164     Zn    0.5290565099    0.4709434901    0.4709434901          1.4911
Zn165     Zn    0.5290565099    0.5290565099    0.5290565099          1.4948
O166       O    0.5000000000    0.5000000000    0.5000000000         -2.0922
O167       O    0.4223414756    0.5213544097    0.4786455903         -0.9985
O168       O    0.4786455903    0.4223414756    0.5213544097         -0.9967
O169       O    0.5213544097    0.4786455903    0.4223414756         -0.9919
O170       O    0.4223414756    0.4786455903    0.5213544097         -0.9987
O171       O    0.4786455903    0.5213544097    0.4223414756         -0.9947
O172       O    0.5213544097    0.4223414756    0.4786455903         -1.0005
O173       O    0.5776585244    0.5213544097    0.5213544097         -0.9944
O174       O    0.4786455903    0.4786455903    0.5776585244          -1.002
O175       O    0.5776585244    0.4786455903    0.4786455903         -0.9959
O176       O    0.5213544097    0.5213544097    0.5776585244         -1.0005
O177       O    0.5213544097    0.5776585244    0.5213544097         -0.9996
O178       O    0.4786455903    0.5776585244    0.4786455903         -0.9975
C179       C    0.4071497827    0.5000000000    0.5000000000          0.5204
C180       C    0.5000000000    0.4071497827    0.5000000000          0.5253
C181       C    0.5000000000    0.5000000000    0.4071497827          0.5149
C182       C    0.5928502173    0.5000000000    0.5000000000          0.5186
C183       C    0.5000000000    0.5000000000    0.5928502173            0.53
C184       C    0.5000000000    0.5928502173    0.5000000000          0.5205
C760       C    0.5000000000    0.5000000000   -0.3672398422         -0.2533
C761       C    0.4718335467    0.4978589069   -0.3467602057         -0.2513
C762       C    0.4732269676    0.4996604313   -0.3123028888         -0.2528
C763       C    0.5047565906    0.5028850919   -0.2961954596          0.7445
C764       C    0.5336510086    0.5075894718   -0.3171438450          0.7402
C765       C    0.5310561329    0.5052157380   -0.3519942549          0.7422
C766       C    0.5049396312    0.4907422656   -0.2624663484         -0.2448
H767       H    0.4493484187    0.4982443449   -0.2973370032         -0.2514
H768       H    0.4460965385    0.4946761084   -0.3578073471         -0.2485
Cl769     Cl    0.5685912983    0.5098958699   -0.3766847309           0.738
C770       C    0.5582475215    0.5131697659   -0.3031920702          0.7354
C771       C    0.4897310919    0.5087719131   -0.2371134319          0.7395
C772       C    0.4942650303    0.4984913388   -0.2032945489         -0.2513
H773       H    0.4746380073    0.5319055852   -0.2428580552          0.7193
H774       H    0.5205191537    0.4680517544   -0.2561850097         -0.2249
C775       C    0.4652430246    0.4988665753   -0.1825846084         -0.2516
C776       C    0.4689017654    0.4996548191   -0.1481770095         -0.2521
C777       C    0.5000000000    0.5000000000   -0.1327601578         -0.2524
C778       C    0.5282738880    0.4997064486   -0.1529830511         -0.2523
C779       C    0.5262403747    0.4990188609   -0.1875465344         -0.2518
H780       H    0.4454546403    0.5000033362   -0.1325160046         -0.2524
H781       H    0.4394694910    0.4985594671   -0.1939523647         -0.2513
H782       H    0.5497888765    0.4987750152   -0.2030376126         -0.2516
H783       H    0.5539931291    0.4999881055   -0.1414261299         -0.2525
N784       N    0.5839041694    0.5085387470   -0.2889949987          0.7395
C735       C    0.5000000000    0.5000000000    0.3672398422         -0.2533
C736       C    0.4718368381    0.5021839601    0.3467602057         -0.2513
C737       C    0.4732275154    0.5003803170    0.3123028888         -0.2528
C738       C    0.5047521940    0.4971076718    0.2961954596          0.7445
C739       C    0.5336394185    0.4923593200    0.3171438450          0.7402
C740       C    0.5310481585    0.4947370004    0.3519942549          0.7422
C741       C    0.5049537158    0.5092502056    0.2624663484         -0.2448
H742       H    0.4493511495    0.5018327450    0.2973370032         -0.2514
H743       H    0.4461047040    0.5054059268    0.3578073471         -0.2485
Cl744     Cl    0.5685761573    0.4899997453    0.3766847309           0.738
C745       C    0.5582274096    0.4867415964    0.3031920702          0.7354
C746       C    0.4897177529    0.4912437264    0.2371134319          0.7395
C747       C    0.4942673331    0.5015173881    0.2032945489         -0.2513
H748       H    0.4745894762    0.4681330528    0.2428580552          0.7193
H749       H    0.5205677553    0.5319169783    0.2561850097         -0.2249
C750       C    0.4652447899    0.5011863236    0.1825846084         -0.2516
C751       C    0.4689023268    0.5003925121    0.1481770095         -0.2521
C752       C    0.5000000000    0.5000000000    0.1327601578         -0.2524
C753       C    0.5282743021    0.5002505180    0.1529830511         -0.2523
C754       C    0.5262418376    0.5009412000    0.1875465344         -0.2518
H755       H    0.4454546984    0.5000796821    0.1325160046         -0.2524
H756       H    0.4394717536    0.5015326589    0.1939523647         -0.2513
H757       H    0.5497906833    0.5011492045    0.2030376126         -0.2516
H758       H    0.5539930847    0.4999297167    0.1414261299         -0.2525
N759       N    0.5838910762    0.4913335604    0.2889949987          0.7395
C710       C    0.5000000000    0.8672398422    0.5000000000         -0.2533
C711       C    0.4991197975    0.8467602057    0.5282339975         -0.2513
C712       C    0.5008572503    0.8123028888    0.5267614591         -0.2528
C713       C    0.5026696387    0.7961954596    0.4951192276          0.7445
C714       C    0.5060780345    0.8171438450    0.4660434401          0.7402
C715       C    0.5038226367    0.8519942549    0.4687418049          0.7422
C716       C    0.4905307640    0.7624663484    0.4954790296         -0.2448
H717       H    0.5005097048    0.7973370032    0.5506794358         -0.2514
H718       H    0.4970903589    0.8578073471    0.5540875306         -0.2485
Cl719     Cl    0.5068206560    0.8766847309    0.4310349864           0.738
C720       C    0.5105535417    0.8031920702    0.4412221194          0.7354
C721       C    0.5092220640    0.7371134319    0.5098666341          0.7395
C722       C    0.4987491404    0.7032945489    0.5057966616         -0.2513
H723       H    0.5330071296    0.7428580552    0.5239108017          0.7193
H724       H    0.4671666779    0.7561850097    0.4809291053         -0.2249
C725       C    0.5004209878    0.6825846084    0.5347729026         -0.2516
C726       C    0.5010449359    0.6481770095    0.5310825908         -0.2521
C727       C    0.5000000000    0.6327601578    0.5000000000         -0.2524
C728       C    0.4984431893    0.6529830511    0.4717674787         -0.2523
C729       C    0.4978471657    0.6875465344    0.4738296885         -0.2518
H730       H    0.5024409506    0.6325160046    0.5544907152         -0.2524
H731       H    0.5012659989    0.6939523647    0.5605344109         -0.2513
H732       H    0.4965511873    0.7030376126    0.4503156110         -0.2516
H733       H    0.4975751786    0.6414261299    0.4460613462         -0.2525
N734       N    0.5047805608    0.7889949987    0.4157980637          0.7395
C685       C    0.5000000000    1.1327601578    0.5000000000         -0.2533
C686       C    0.4718368381    1.1532397943    0.5021839601         -0.2513
C687       C    0.4732275154    1.1876971112    0.5003803170         -0.2528
C688       C    0.5047521940    1.2038045404    0.4971076718          0.7445
C689       C    0.5336394185    1.1828561550    0.4923593200          0.7402
C690       C    0.5310481585    1.1480057451    0.4947370004          0.7422
C691       C    0.5049537158    1.2375336516    0.5092502056         -0.2448
H692       H    0.4493511495    1.2026629968    0.5018327450         -0.2514
H693       H    0.4461047040    1.1421926529    0.5054059268         -0.2485
Cl694     Cl    0.5685761573    1.1233152691    0.4899997453           0.738
C695       C    0.5582274096    1.1968079298    0.4867415964          0.7354
C696       C    0.4897177529    1.2628865681    0.4912437264          0.7395
C697       C    0.4942673331    1.2967054511    0.5015173881         -0.2513
H698       H    0.4745894762    1.2571419448    0.4681330528          0.7193
H699       H    0.5205677553    1.2438149903    0.5319169783         -0.2249
C700       C    0.4652447899    1.3174153916    0.5011863236         -0.2516
C701       C    0.4689023268    1.3518229905    0.5003925121         -0.2521
C702       C    0.5000000000    1.3672398422    0.5000000000         -0.2524
C703       C    0.5282743021    1.3470169489    0.5002505180         -0.2523
C704       C    0.5262418376    1.3124534656    0.5009412000         -0.2518
H705       H    0.4454546984    1.3674839954    0.5000796821         -0.2524
H706       H    0.4394717536    1.3060476353    0.5015326589         -0.2513
H707       H    0.5497906833    1.2969623874    0.5011492045         -0.2516
H708       H    0.5539930847    1.3585738701    0.4999297167         -0.2525
N709       N    0.5838910762    1.2110050013    0.4913335604          0.7395
C660       C    0.5000000000    0.6327601578    0.0000000000         -0.2533
C661       C    0.4739377722    0.6532397943   -0.0108946617         -0.2513
C662       C    0.4759977569    0.6876971112   -0.0118660396         -0.2528
C663       C    0.5055481947    0.7038045404   -0.0004079774          0.7445
C664       C    0.5334238820    0.6828561550    0.0085343175          0.7402
C665       C    0.5300336364    0.6480057451    0.0094693186          0.7422
C666       C    0.5001922475    0.7375336516    0.0104913604         -0.2448
H667       H    0.4540844725    0.7026629968   -0.0214576174         -0.2514
H668       H    0.4495660956    0.6421926529   -0.0197572331         -0.2485
Cl669     Cl    0.5655949933    0.6233152691    0.0223604852           0.738
C670       C    0.5578693463    0.6968079298    0.0147429730          0.7354
C671       C    0.4948399245    0.7628865681   -0.0124808074          0.7395
C672       C    0.4942059167    0.7967054511   -0.0012627488         -0.2513
H673       H    0.4919102526    0.7571419448   -0.0399468776          0.7193
H674       H    0.5037566302    0.7438149903    0.0377837769         -0.2249
C675       C    0.4685252984    0.8174153916   -0.0147876688         -0.2516
C676       C    0.4721425600    0.8518229905   -0.0138268717         -0.2521
C677       C    0.5000000000    0.8672398422    0.0000000000         -0.2524
C678       C    0.5250513637    0.8470169489    0.0131121354         -0.2523
C679       C    0.5229275118    0.8124534656    0.0128003554         -0.2518
H680       H    0.4514155866    0.8674839954   -0.0247941739         -0.2524
H681       H    0.4454281059    0.8060476353   -0.0262283440         -0.2513
H682       H    0.5437923596    0.7969623874    0.0237204986         -0.2516
H683       H    0.5480886277    0.8585738701    0.0245508050         -0.2525
N684       N    0.5786180144    0.7110050013    0.0305291280          0.7395
C635       C    0.5000000000    1.1327601578    0.0000000000         -0.2533
C636       C    0.4985341124    1.1532397943   -0.0282096534         -0.2513
C637       C    0.5003017473    1.1876971112   -0.0267734854         -0.2528
C638       C    0.5027703432    1.2038045404    0.0048243247          0.7445
C639       C    0.5067813474    1.1828561550    0.0338231251          0.7402
C640       C    0.5044704423    1.1480057451    0.0311721423          0.7422
C641       C    0.4906266161    1.2375336516    0.0047164900         -0.2448
H642       H    0.4994579624    1.2026629968   -0.0506791003         -0.2514
H643       H    0.4959686325    1.1421926529   -0.0540155075         -0.2485
Cl644     Cl    0.5082502581    1.1233152691    0.0688086309           0.738
C645       C    0.5117709502    1.1968079298    0.0585462315          0.7354
C646       C    0.5090153390    1.2628865681   -0.0100558737          0.7395
C647       C    0.4986291251    1.2967054511   -0.0057694573         -0.2513
H648       H    0.5325038572    1.2571419448   -0.0245905736          0.7193
H649       H    0.4675694815    1.2438149903    0.0197481020         -0.2249
C650       C    0.4996993359    1.3174153916   -0.0347741512         -0.2516
C651       C    0.5003997262    1.3518229905   -0.0310975813         -0.2521
C652       C    0.5000000000    1.3672398422    0.0000000000         -0.2524
C653       C    0.4990293684    1.3470169489    0.0282587472         -0.2523
C654       C    0.4983906810    1.3124534656    0.0262093493         -0.2518
H655       H    0.5013097058    1.3674839954   -0.0545296337         -0.2524
H656       H    0.5000095963    1.3060476353   -0.0605476470         -0.2513
H657       H    0.4975829146    1.2969623874    0.0497452562         -0.2516
H658       H    0.4986949643    1.3585738701    0.0539773565         -0.2525
N659       N    0.5065267786    1.2110050013    0.0840846062          0.7395
C610       C    0.5000000000    1.0000000000   -0.1327601578         -0.2533
C611       C    0.4978390732    0.9718350614   -0.1532397943         -0.2513
C612       C    0.4996415783    0.9732272134   -0.1876971112         -0.2528
C613       C    0.5028884407    1.0047545578   -0.2038045404          0.7445
C614       C    0.5076131663    1.0336456559   -0.1828561550          0.7402
C615       C    0.5052376058    1.0310524523   -0.1480057451          0.7422
C616       C    0.4907457463    1.0049461491   -0.2375336516         -0.2448
H617       H    0.4982086775    0.9493496676   -0.2026629968         -0.2514
H618       H    0.4946381520    0.9461003009   -0.1421926529         -0.2485
Cl619     Cl    0.5099441680    1.0685843128   -0.1233152691           0.738
C620       C    0.5132107793    1.0582382331   -0.1968079298          0.7354
C621       C    0.5087646798    0.9897249175   -0.2628865681          0.7395
C622       C    0.4984873008    0.9942660941   -0.2967054511         -0.2513
H623       H    0.5318877179    0.9746155463   -0.2571419448          0.7193
H624       H    0.4680662115    1.0205416459   -0.2438149903         -0.2249
C625       C    0.4988421005    0.9652438314   -0.3174153916         -0.2516
C626       C    0.4996329205    0.9689020162   -0.3518229905         -0.2521
C627       C    0.5000000000    1.0000000000   -0.3672398422         -0.2524
C628       C    0.4997263586    1.0282740877   -0.3470169489         -0.2523
C629       C    0.4990373391    1.0262410591   -0.3124534656         -0.2518
H630       H    0.4999649265    0.9454546514   -0.3674839954         -0.2524
H631       H    0.4985168431    0.9394705204   -0.3060476353         -0.2513
H632       H    0.4988100758    1.0497897268   -0.2969623874         -0.2516
H633       H    0.5000261263    1.0539931241   -0.3585738701         -0.2525
N634       N    0.5085978285    1.0838981358   -0.2110050013          0.7395
C585       C    0.5000000000    1.0000000000    0.3672398422         -0.2533
C586       C    0.4718368381    1.0021839601    0.3467602057         -0.2513
C587       C    0.4732275154    1.0003803170    0.3123028888         -0.2528
C588       C    0.5047521940    0.9971076718    0.2961954596          0.7445
C589       C    0.5336394185    0.9923593200    0.3171438450          0.7402
C590       C    0.5310481585    0.9947370004    0.3519942549          0.7422
C591       C    0.5049537158    1.0092502056    0.2624663484         -0.2448
H592       H    0.4493511495    1.0018327450    0.2973370032         -0.2514
H593       H    0.4461047040    1.0054059268    0.3578073471         -0.2485
Cl594     Cl    0.5685761573    0.9899997453    0.3766847309           0.738
C595       C    0.5582274096    0.9867415964    0.3031920702          0.7354
C596       C    0.4897177529    0.9912437264    0.2371134319          0.7395
C597       C    0.4942673331    1.0015173881    0.2032945489         -0.2513
H598       H    0.4745894762    0.9681330528    0.2428580552          0.7193
H599       H    0.5205677553    1.0319169783    0.2561850097         -0.2249
C600       C    0.4652447899    1.0011863236    0.1825846084         -0.2516
C601       C    0.4689023268    1.0003925121    0.1481770095         -0.2521
C602       C    0.5000000000    1.0000000000    0.1327601578         -0.2524
C603       C    0.5282743021    1.0002505180    0.1529830511         -0.2523
C604       C    0.5262418376    1.0009412000    0.1875465344         -0.2518
H605       H    0.4454546984    1.0000796821    0.1325160046         -0.2524
H606       H    0.4394717536    1.0015326589    0.1939523647         -0.2513
H607       H    0.5497906833    1.0011492045    0.2030376126         -0.2516
H608       H    0.5539930847    0.9999297167    0.1414261299         -0.2525
N609       N    0.5838910762    0.9913335604    0.2889949987          0.7395
C560       C    0.6327601578    0.5000000000    0.5000000000         -0.2533
C561       C    0.6532397943    0.5213806157    0.4815391592         -0.2513
C562       C    0.6876971112    0.5191206729    0.4812567228         -0.2528
C563       C    0.7038045404    0.4946001282    0.5013380190          0.7445
C564       C    0.6828561550    0.4708887305    0.5185074161          0.7402
C565       C    0.6480057451    0.4744016304    0.5183415044          0.7422
C566       C    0.7375336516    0.5030806122    0.5100307244         -0.2448
H567       H    0.7026629968    0.5369634801    0.4653248482         -0.2514
H568       H    0.6421926529    0.5417866206    0.4655354483         -0.2485
Cl569     Cl    0.6233152691    0.4446141094    0.5416545024           0.738
C570       C    0.6968079298    0.4495871015    0.5320118127          0.7354
C571       C    0.7628865681    0.5010219670    0.4865332812          0.7395
C572       C    0.7967054511    0.5051138858    0.4969976496         -0.2513
H573       H    0.7571419448    0.4952630267    0.4595184224          0.7193
H574       H    0.7438149903    0.5081823124    0.5370779696         -0.2249
C575       C    0.8174153916    0.5253136839    0.4761557261         -0.2516
C576       C    0.8518229905    0.5221747148    0.4781940061         -0.2521
C577       C    0.8672398422    0.5000000000    0.5000000000         -0.2524
C578       C    0.8470169489    0.4802698456    0.5202538867         -0.2523
C579       C    0.8124534656    0.4821913629    0.5192969516         -0.2518
H580       H    0.8674839954    0.5384621419    0.4613236517         -0.2524
H581       H    0.8060476353    0.5437065111    0.4580982275         -0.2513
H582       H    0.7969623874    0.4657582320    0.5361653722         -0.2516
H583       H    0.8585738701    0.4619333503    0.5382908385         -0.2525
N584       N    0.7110050013    0.4347779533    0.5534687241          0.7395
C535       C    1.1327601578    0.5000000000    0.5000000000         -0.2533
C536       C    1.1532397943    0.5213806157    0.4815391592         -0.2513
C537       C    1.1876971112    0.5191206729    0.4812567228         -0.2528
C538       C    1.2038045404    0.4946001282    0.5013380190          0.7445
C539       C    1.1828561550    0.4708887305    0.5185074161          0.7402
C540       C    1.1480057451    0.4744016304    0.5183415044          0.7422
C541       C    1.2375336516    0.5030806122    0.5100307244         -0.2448
H542       H    1.2026629968    0.5369634801    0.4653248482         -0.2514
H543       H    1.1421926529    0.5417866206    0.4655354483         -0.2485
Cl544     Cl    1.1233152691    0.4446141094    0.5416545024           0.738
C545       C    1.1968079298    0.4495871015    0.5320118127          0.7354
C546       C    1.2628865681    0.5010219670    0.4865332812          0.7395
C547       C    1.2967054511    0.5051138858    0.4969976496         -0.2513
H548       H    1.2571419448    0.4952630267    0.4595184224          0.7193
H549       H    1.2438149903    0.5081823124    0.5370779696         -0.2249
C550       C    1.3174153916    0.5253136839    0.4761557261         -0.2516
C551       C    1.3518229905    0.5221747148    0.4781940061         -0.2521
C552       C    1.3672398422    0.5000000000    0.5000000000         -0.2524
C553       C    1.3470169489    0.4802698456    0.5202538867         -0.2523
C554       C    1.3124534656    0.4821913629    0.5192969516         -0.2518
H555       H    1.3674839954    0.5384621419    0.4613236517         -0.2524
H556       H    1.3060476353    0.5437065111    0.4580982275         -0.2513
H557       H    1.2969623874    0.4657582320    0.5361653722         -0.2516
H558       H    1.3585738701    0.4619333503    0.5382908385         -0.2525
N559       N    1.2110050013    0.4347779533    0.5534687241          0.7395
C510       C    0.6327601578    0.5000000000    0.0000000000         -0.2533
C511       C    0.6532397943    0.4717826934    0.0013103351         -0.2513
C512       C    0.6876971112    0.4733854415    0.0029284544         -0.2528
C513       C    0.7038045404    0.5050729700    0.0022833935          0.7445
C514       C    0.6828561550    0.5343254485    0.0034284180          0.7402
C515       C    0.6480057451    0.5314604238    0.0013889020          0.7422
C516       C    0.7375336516    0.5037735920   -0.0097910983         -0.2448
H517       H    0.7026629968    0.4495124538    0.0044353905         -0.2514
H518       H    0.6421926529    0.4458496373    0.0012904244         -0.2485
Cl519     Cl    0.6233152691    0.5692861793    0.0014559537           0.738
C520       C    0.6968079298    0.5594189452    0.0059670296          0.7354
C521       C    0.7628865681    0.4908776650    0.0099589124          0.7395
C522       C    0.7967054511    0.4941238380   -0.0007979071         -0.2513
H523       H    0.7571419448    0.4787188649    0.0347607585          0.7193
H524       H    0.7438149903    0.5164692501   -0.0342124227         -0.2249
C525       C    0.8174153916    0.4653642816    0.0031143215         -0.2516
C526       C    0.8518229905    0.4690918473    0.0034504261         -0.2521
C527       C    0.8672398422    0.5000000000    0.0000000000         -0.2524
C528       C    0.8470169489    0.5280269874   -0.0037399059         -0.2523
C529       C    0.8124534656    0.5259247919   -0.0041743338         -0.2518
H530       H    0.8674839954    0.4458622897    0.0066561704         -0.2524
H531       H    0.8060476353    0.4397457187    0.0059530859         -0.2513
H532       H    0.7969623874    0.5492677360   -0.0072885531         -0.2516
H533       H    0.8585738701    0.5535885589   -0.0065973096         -0.2525
N534       N    0.7110050013    0.5843191952   -0.0017587368          0.7395
C485       C    1.1327601578    0.5000000000    0.0000000000         -0.2533
C486       C    1.1532397943    0.5039125310    0.0279754441         -0.2513
C487       C    1.1876971112    0.5053756015    0.0262300110         -0.2528
C488       C    1.2038045404    0.5018047843   -0.0052622869          0.7445
C489       C    1.1828561550    0.5002414355   -0.0344953935          0.7402
C490       C    1.1480057451    0.4984754297   -0.0314541412          0.7422
C491       C    1.2375336516    0.4899020551   -0.0028525623         -0.2448
H492       H    1.2026629968    0.5090823963    0.0498615592         -0.2514
H493       H    1.1421926529    0.5062894022    0.0537993531         -0.2485
Cl494     Cl    1.1233152691    0.4950463912   -0.0691242085           0.738
C495       C    1.1968079298    0.5004500766   -0.0597161111          0.7354
C496       C    1.2628865681    0.5107593641    0.0081629050          0.7395
C497       C    1.2967054511    0.4997485744    0.0059247549         -0.2513
H498       H    1.2571419448    0.5365787635    0.0179775166          0.7193
H499       H    1.2438149903    0.4644119332   -0.0132369017         -0.2249
C500       C    1.3174153916    0.5063019774    0.0341996648         -0.2516
C501       C    1.3518229905    0.5062921472    0.0304569898         -0.2521
C502       C    1.3672398422    0.5000000000    0.0000000000         -0.2524
C503       C    1.3470169489    0.4936858852   -0.0275614018         -0.2523
C504       C    1.3124534656    0.4934475985   -0.0254280540         -0.2518
H505       H    1.3674839954    0.5116310148    0.0532908601         -0.2524
H506       H    1.3060476353    0.5114962242    0.0594462318         -0.2513
H507       H    1.2969623874    0.4881893851   -0.0483832842         -0.2516
H508       H    1.3585738701    0.4884783459   -0.0527494988         -0.2525
N509       N    1.2110050013    0.4904561285   -0.0837957896          0.7395
C460       C    1.0000000000    0.5000000000   -0.1327601578         -0.2533
C461       C    1.0281631619    0.4978160399   -0.1532397943         -0.2513
C462       C    1.0267724846    0.4996196830   -0.1876971112         -0.2528
C463       C    0.9952478060    0.5028923282   -0.2038045404          0.7445
C464       C    0.9663605815    0.5076406800   -0.1828561550          0.7402
C465       C    0.9689518415    0.5052629996   -0.1480057451          0.7422
C466       C    0.9950462842    0.4907497944   -0.2375336516         -0.2448
H467       H    1.0506488505    0.4981672550   -0.2026629968         -0.2514
H468       H    1.0538952960    0.4945940732   -0.1421926529         -0.2485
Cl469     Cl    0.9314238427    0.5100002547   -0.1233152691           0.738
C470       C    0.9417725904    0.5132584036   -0.1968079298          0.7354
C471       C    1.0102822471    0.5087562736   -0.2628865681          0.7395
C472       C    1.0057326669    0.4984826119   -0.2967054511         -0.2513
H473       H    1.0254105238    0.5318669472   -0.2571419448          0.7193
H474       H    0.9794322447    0.4680830217   -0.2438149903         -0.2249
C475       C    1.0347552101    0.4988136764   -0.3174153916         -0.2516
C476       C    1.0310976732    0.4996074879   -0.3518229905         -0.2521
C477       C    1.0000000000    0.5000000000   -0.3672398422         -0.2524
C478       C    0.9717256979    0.4997494820   -0.3470169489         -0.2523
C479       C    0.9737581624    0.4990588000   -0.3124534656         -0.2518
H480       H    1.0545453016    0.4999203179   -0.3674839954         -0.2524
H481       H    1.0605282464    0.4984673411   -0.3060476353         -0.2513
H482       H    0.9502093167    0.4988507955   -0.2969623874         -0.2516
H483       H    0.9460069153    0.5000702833   -0.3585738701         -0.2525
N484       N    0.9161089238    0.5086664396   -0.2110050013          0.7395
C435       C    1.0000000000    0.5000000000    0.3672398422         -0.2533
C436       C    0.9718356709    0.5021688563    0.3467602057         -0.2513
C437       C    0.9732273153    0.5003659593    0.3123028888         -0.2528
C438       C    1.0047537444    0.4971102208    0.2961954596          0.7445
C439       C    1.0336435112    0.4923773614    0.3171438450          0.7402
C440       C    1.0310509765    0.4947536518    0.3519942549          0.7422
C441       C    1.0049487544    0.5092528608    0.2624663484         -0.2448
H442       H    0.9493501739    0.5018055826    0.2973370032         -0.2514
H443       H    0.9461018126    0.5053770228    0.3578073471         -0.2485
Cl444     Cl    1.0685815104    0.4900365230    0.3766847309           0.738
C445       C    1.0582345115    0.4867728247    0.3031920702          0.7354
C446       C    0.9897224503    0.4912382134    0.2371134319          0.7395
C447       C    0.9942665202    0.5015143135    0.2032945489         -0.2513
H448       H    0.9746065696    0.4681194302    0.2428580552          0.7193
H449       H    1.0205506358    0.5319280039    0.2561850097         -0.2249
C450       C    0.9652441587    0.5011676848    0.1825846084         -0.2516
C451       C    0.9689021208    0.5003758349    0.1481770095         -0.2521
C452       C    1.0000000000    0.5000000000    0.1327601578         -0.2524
C453       C    1.0282741637    0.5002656811    0.1529830511         -0.2523
C454       C    1.0262413291    0.5009552729    0.1875465344         -0.2518
H455       H    0.9454546635    0.5000504303    0.1325160046         -0.2524
H456       H    0.9394709404    0.5015001984    0.1939523647         -0.2529
H457       H    1.0497900599    0.5011759062    0.2030376126         -0.2516
H458       H    1.0539931146    0.4999586723    0.1414261299         -0.2525
N459       N    1.0838957118    0.4913785510    0.2889949987          0.7395
C410       C    1.0000000000   -0.1327601578    0.5000000000         -0.2533
C411       C    1.0281631619   -0.1532397943    0.5021839601         -0.2513
C412       C    1.0267724846   -0.1876971112    0.5003803170         -0.2528
C413       C    0.9952478060   -0.2038045404    0.4971076718          0.7445
C414       C    0.9663605815   -0.1828561550    0.4923593200          0.7402
C415       C    0.9689518415   -0.1480057451    0.4947370004          0.7422
C416       C    0.9950462842   -0.2375336516    0.5092502056         -0.2448
H417       H    1.0506488505   -0.2026629968    0.5018327450         -0.2514
H418       H    1.0538952960   -0.1421926529    0.5054059268         -0.2485
Cl419     Cl    0.9314238427   -0.1233152691    0.4899997453           0.738
C420       C    0.9417725904   -0.1968079298    0.4867415964          0.7354
C421       C    1.0102822471   -0.2628865681    0.4912437264          0.7395
C422       C    1.0057326669   -0.2967054511    0.5015173881         -0.2513
H423       H    1.0254105238   -0.2571419448    0.4681330528          0.7193
H424       H    0.9794322447   -0.2438149903    0.5319169783         -0.2249
C425       C    1.0347552101   -0.3174153916    0.5011863236         -0.2516
C426       C    1.0310976732   -0.3518229905    0.5003925121         -0.2521
C427       C    1.0000000000   -0.3672398422    0.5000000000         -0.2524
C428       C    0.9717256979   -0.3470169489    0.5002505180         -0.2523
C429       C    0.9737581624   -0.3124534656    0.5009412000         -0.2518
H430       H    1.0545453016   -0.3674839954    0.5000796821         -0.2524
H431       H    1.0605282464   -0.3060476353    0.5015326589         -0.2513
H432       H    0.9502093167   -0.2969623874    0.5011492045         -0.2516
H433       H    0.9460069153   -0.3585738701    0.4999297167         -0.2525
N434       N    0.9161089238   -0.2110050013    0.4913335604          0.7395
C385       C    1.0000000000    0.3672398422    0.5000000000         -0.2533
C386       C    1.0015629335    0.3467602057    0.4717955569         -0.2513
C387       C    0.9997903679    0.3123028888    0.4732256349         -0.2528
C388       C    0.9972130752    0.2961954596    0.5048147648          0.7445
C389       C    0.9931023251    0.3171438450    0.5337995939          0.7402
C390       C    0.9954223372    0.3519942549    0.5311565774          0.7422
C391       C    1.0093571014    0.2624663484    0.5047487110         -0.2448
H392       H    1.0007163945    0.2973370032    0.4493230645         -0.2514
H393       H    1.0042171826    0.3578073471    0.4459986820         -0.2485
Cl394     Cl    0.9915130564    0.3766847309    0.5687798389           0.738
C395       C    0.9880276927    0.3031920702    0.5585053873          0.7354
C396       C    0.9910193113    0.2371134319    0.4899131688          0.7395
C397       C    1.0013907165    0.2032945489    0.4942352933         -0.2513
H398       H    0.9675809384    0.2428580552    0.4752977433          0.7193
H399       H    1.0323623837    0.2561850097    0.5198595615         -0.2249
C400       C    1.0004203019    0.1825846084    0.4652270891         -0.2516
C401       C    0.9997072667    0.1481770095    0.4689012275         -0.2521
C402       C    1.0000000000    0.1327601578    0.5000000000         -0.2524
C403       C    1.0008734023    0.1529830511    0.5282619194         -0.2523
C404       C    1.0015191369    0.1875465344    0.5262147310         -0.2518
H405       H    0.9988779097    0.1325160046    0.4454661830         -0.2524
H406       H    1.0001987164    0.1939523647    0.4394526783         -0.2513
H407       H    1.0022459238    0.2030376126    0.5497532777         -0.2516
H408       H    1.0011193203    0.1414261299    0.5539815270         -0.2525
N409       N    0.9931839691    0.2889949987    0.5840616533          0.7395
C360       C    0.6327601578   -0.0000000000    0.5000000000         -0.2533
C361       C    0.6532397943   -0.0081572036    0.5270442859         -0.2513
C362       C    0.6876971112   -0.0060978501    0.5260715706         -0.2528
C363       C    0.7038045404    0.0038418350    0.4959764178          0.7445
C364       C    0.6828561550    0.0146589541    0.4687733202          0.7402
C365       C    0.6480057451    0.0117820565    0.4707960541          0.7422
C366       C    0.7375336516   -0.0079765932    0.4931824077         -0.2448
H367       H    0.7026629968   -0.0126235532    0.5490847320         -0.2514
H368       H    0.6421926529   -0.0168084227    0.5514917848         -0.2485
Cl369     Cl    0.6233152691    0.0244365005    0.4351497734           0.738
C370       C    0.6968079298    0.0254057682    0.4459559121          0.7354
C371       C    0.7628865681    0.0063543787    0.5119171643          0.7395
C372       C    0.7967054511   -0.0027084259    0.5052754493         -0.2513
H373       H    0.7571419448    0.0256944565    0.5316384567          0.7193
H374       H    0.7438149903   -0.0267791438    0.4730815393         -0.2249
C375       C    0.8174153916   -0.0085926197    0.5336971642         -0.2516
C376       C    0.8518229905   -0.0070348724    0.5302940574         -0.2521
C377       C    0.8672398422   -0.0000000000    0.5000000000         -0.2524
C378       C    0.8470169489    0.0058028358    0.4723264384         -0.2523
C379       C    0.8124534656    0.0046934162    0.4741641385         -0.2518
H380       H    0.8674839954   -0.0117444668    0.5532659720         -0.2524
H381       H    0.8060476353   -0.0144435037    0.5587996841         -0.2513
H382       H    0.7969623874    0.0095270596    0.4511157699         -0.2516
H383       H    0.8585738701    0.0116171725    0.4472714552         -0.2525
N384       N    0.7110050013    0.0264092421    0.4199039840          0.7395
C335       C    1.3672398422   -0.0000000000    0.5000000000         -0.2533
C336       C    1.3467602057    0.0218422354    0.5179122898         -0.2513
C337       C    1.3123028888    0.0195901883    0.5182519888         -0.2528
C338       C    1.2961954596   -0.0054320893    0.4987994519          0.7445
C339       C    1.3171438450   -0.0295715813    0.4822373414          0.7402
C340       C    1.3519942549   -0.0260556023    0.4823140480          0.7422
C341       C    1.2624663484    0.0028250565    0.4898943254         -0.2448
H342       H    1.2973370032    0.0378315736    0.5337259107         -0.2514
H343       H    1.3578073471    0.0426478159    0.5333929749         -0.2485
Cl344     Cl    1.3766847309   -0.0564251751    0.4597645174           0.738
C345       C    1.3031920702   -0.0512090690    0.4692778949          0.7354
C346       C    1.2371134319    0.0013634013    0.5134364456          0.7395
C347       C    1.2032945489    0.0051884334    0.5028716014         -0.2513
H348       H    1.2428580552   -0.0037080911    0.5405887559          0.7193
H349       H    1.2561850097    0.0072386986    0.4627263188         -0.2249
C350       C    1.1825846084    0.0259106596    0.5231941740         -0.2516
C351       C    1.1481770095    0.0227209733    0.5212362124         -0.2521
C352       C    1.1327601578   -0.0000000000    0.5000000000         -0.2524
C353       C    1.1529830511   -0.0202378103    0.4802533559         -0.2523
C354       C    1.1875465344   -0.0182926264    0.4811612178         -0.2518
H355       H    1.1325160046    0.0394312966    0.5376877849         -0.2524
H356       H    1.1939523647    0.0447558326    0.5407790767         -0.2513
H357       H    1.2030376126   -0.0351485575    0.4647152763         -0.2516
H358       H    1.1414261299   -0.0390261482    0.4626875638         -0.2525
N359       N    1.2889949987   -0.0665579889    0.4482037265          0.7395
C310       C    0.0000000000   -0.3672398422    0.0000000000         -0.2533
C311       C    0.0209579244   -0.3467602057    0.0189393447         -0.2513
C312       C    0.0186921756   -0.3123028888    0.0191706323         -0.2528
C313       C   -0.0053682522   -0.2961954596   -0.0014597187          0.7445
C314       C   -0.0286855510   -0.3171438450   -0.0191606271          0.7402
C315       C   -0.0251772981   -0.3519942549   -0.0189153633          0.7422
C316       C    0.0033065278   -0.2624663484   -0.0099585379         -0.2448
H317       H    0.0361703519   -0.2973370032    0.0355016994         -0.2514
H318       H    0.0409970201   -0.3578073471    0.0354001599         -0.2485
Cl319     Cl   -0.0544303177   -0.3766847309   -0.0428956286           0.738
C320       C   -0.0496765285   -0.3031920702   -0.0331430083          0.7354
C321       C    0.0007173472   -0.2371134319    0.0134863763          0.7395
C322       C    0.0050447240   -0.2032945489    0.0031171615         -0.2513
H323       H   -0.0056506798   -0.2428580552    0.0403641779          0.7193
H324       H    0.0090182146   -0.2561850097   -0.0368835718         -0.2249
C325       C    0.0247683180   -0.1825846084    0.0244102931         -0.2516
C326       C    0.0216762175   -0.1481770095    0.0223015905         -0.2521
C327       C   -0.0000000000   -0.1327601578    0.0000000000         -0.2524
C328       C   -0.0192673604   -0.1529830511   -0.0206946307         -0.2523
C329       C   -0.0173679614   -0.1875465344   -0.0196945123         -0.2518
H330       H    0.0375782006   -0.1325160046    0.0395357448         -0.2524
H331       H    0.0427483330   -0.1939523647    0.0428788722         -0.2513
H332       H   -0.0334156548   -0.2030376126   -0.0369300262         -0.2516
H333       H   -0.0371915223   -0.1414261299   -0.0391413951         -0.2525
N334       N   -0.0639969504   -0.2889949987   -0.0549291378          0.7395
C285       C    0.0000000000    0.1327601578    0.0000000000         -0.2533
C286       C   -0.0079943662    0.1532397943   -0.0270928677         -0.2513
C287       C   -0.0059409016    0.1876971112   -0.0261077816         -0.2528
C288       C    0.0038175609    0.2038045404    0.0040466207          0.7445
C289       C    0.0144708392    0.1828561550    0.0313142983          0.7402
C290       C    0.0116061617    0.1480057451    0.0292742946          0.7422
C291       C   -0.0080174613    0.2375336516    0.0067694843         -0.2448
H292       H   -0.0123280467    0.2026629968   -0.0491597831         -0.2514
H293       H   -0.0164983605    0.1421926529   -0.0515919672         -0.2485
Cl294     Cl    0.0240459401    0.1233152691    0.0649960553           0.738
C295       C    0.0250801966    0.1968079298    0.0541959429          0.7354
C296       C    0.0064259535    0.2628865681   -0.0118787227          0.7395
C297       C   -0.0026766415    0.2967054511   -0.0052916468         -0.2513
H298       H    0.0258843185    0.2571419448   -0.0314833146          0.7193
H299       H   -0.0269405920    0.2438149903    0.0267568788         -0.2249
C300       C   -0.0083897528    0.3174153916   -0.0337482449         -0.2516
C301       C   -0.0068525057    0.3518229905   -0.0303358288         -0.2521
C302       C   -0.0000000000    0.3672398422    0.0000000000         -0.2524
C303       C    0.0056362555    0.3470169489    0.0277079689         -0.2523
C304       C    0.0045379110    0.3124534656    0.0258636281         -0.2518
H305       H   -0.0114238233    0.3674839954   -0.0533356592         -0.2524
H306       H   -0.0140895223    0.3060476353   -0.0588855077         -0.2513
H307       H    0.0092328153    0.2969623874    0.0489406573         -0.2516
H308       H    0.0112997642    0.3585738701    0.0527974759         -0.2525
N309       N    0.0259269322    0.2110050013    0.0802534362          0.7395
C260       C   -0.3672398422   -0.0000000000    0.0000000000         -0.2533
C261       C   -0.3467602057    0.0036708028   -0.0280081877         -0.2513
C262       C   -0.3123028888    0.0017961151   -0.0267148749         -0.2528
C263       C   -0.2961954596   -0.0031396808    0.0045925281          0.7445
C264       C   -0.3171438450   -0.0094095891    0.0331881018          0.7402
C265       C   -0.3519942549   -0.0068981541    0.0307262556          0.7422
C266       C   -0.2624663484    0.0089751885    0.0054361378         -0.2448
H267       H   -0.2973370032    0.0045096281   -0.0504809694         -0.2514
H268       H   -0.3578073471    0.0082495513   -0.0535338387         -0.2485
Cl269     Cl   -0.3766847309   -0.0136140996    0.0679510908           0.738
C270       C   -0.3031920702   -0.0163202117    0.0574444704          0.7354
C271       C   -0.2371134319   -0.0082000558   -0.0107310772          0.7395
C272       C   -0.2032945489    0.0018185355   -0.0056443657         -0.2513
H273       H   -0.2428580552   -0.0304780438   -0.0270607814          0.7193
H274       H   -0.2561850097    0.0307841993    0.0222274411         -0.2249
C275       C   -0.1825846084    0.0030232990   -0.0346437823         -0.2516
C276       C   -0.1481770095    0.0020371063   -0.0310333618         -0.2521
C277       C   -0.1327601578   -0.0000000000    0.0000000000         -0.2524
C278       C   -0.1529830511   -0.0012456133    0.0282479621         -0.2523
C279       C   -0.1875465344   -0.0004483762    0.0262548825         -0.2518
H280       H   -0.1325160046    0.0029651519   -0.0544647056         -0.2524
H281       H   -0.1939523647    0.0047326067   -0.0603624062         -0.2513
H282       H   -0.2030376126   -0.0014864551    0.0497817564         -0.2516
H283       H   -0.1414261299   -0.0029265526    0.0539137591         -0.2525
N284       N   -0.2889949987   -0.0130923494    0.0833151260          0.7395
C235       C    0.3672398422   -0.0000000000    0.0000000000         -0.2533
C236       C    0.3467602057   -0.0281872038    0.0018479494         -0.2513
C237       C    0.3123028888   -0.0267751162    0.0000610189         -0.2528
C238       C    0.2961954596    0.0047863481   -0.0028354510          0.7445
C239       C    0.3171438450    0.0337281441   -0.0072389751          0.7402
C240       C    0.3519942549    0.0311087138   -0.0048923654          0.7422
C241       C    0.2624663484    0.0048430517    0.0093086225         -0.2448
H242       H    0.2973370032   -0.0506671050    0.0012286098         -0.2514
H243       H    0.3578073471   -0.0539559311    0.0047628225         -0.2485
Cl244     Cl    0.3766847309    0.0686905374   -0.0091817495           0.738
C245       C    0.3031920702    0.0583813800   -0.0125630790          0.7354
C246       C    0.2371134319   -0.0101770943   -0.0088782703          0.7395
C247       C    0.2032945489   -0.0057503546    0.0014489161         -0.2513
H248       H    0.2428580552   -0.0250286926   -0.0321677103          0.7193
H249       H    0.2561850097    0.0201856719    0.0321599862         -0.2249
C250       C    0.1825846084   -0.0347668859    0.0007717715         -0.2516
C251       C    0.1481770095   -0.0311001427    0.0000216338         -0.2521
C252       C    0.1327601578   -0.0000000000    0.0000000000         -0.2524
C253       C    0.1529830511    0.0282693040    0.0005876810         -0.2523
C254       C    0.1875465344    0.0262287474    0.0012540759         -0.2518
H255       H    0.1325160046   -0.0545423732   -0.0005707949         -0.2524
H256       H    0.1939523647   -0.0605422197    0.0008107299         -0.2513
H257       H    0.2030376126    0.0497734381    0.0017428937         -0.2516
H258       H    0.1414261299    0.0539900834    0.0005736077         -0.2525
N259       N    0.2889949987    0.0839884610   -0.0076653936          0.7395
C210       C    0.0000000000    0.0000000000   -0.1327601578         -0.2533
C211       C   -0.0021810102   -0.0281633905   -0.1532397943         -0.2513
C212       C   -0.0003775128   -0.0267725242   -0.1876971112         -0.2528
C213       C    0.0028918304    0.0047524969   -0.2038045404          0.7445
C214       C    0.0076371565    0.0336402186   -0.1828561550          0.7402
C215       C    0.0052597475    0.0310487096   -0.1480057451          0.7422
C216       C   -0.0092507244    0.0049527469   -0.2375336516         -0.2448
H217       H   -0.0018274399   -0.0506490422   -0.2026629968         -0.2514
H218       H   -0.0054002816   -0.0538958620   -0.1421926529         -0.2485
Cl219     Cl    0.0099930718    0.0685772044   -0.1233152691           0.738
C220       C    0.0132523047    0.0582287980   -0.1968079298          0.7354
C221       C    0.0087573506   -0.0102813299   -0.2628865681          0.7395
C222       C   -0.0015167876   -0.0057328258   -0.2967054511         -0.2513
H223       H    0.0318696086   -0.0254071859   -0.2571419448          0.7193
H224       H   -0.0319191324    0.0205644122   -0.2438149903         -0.2249
C225       C   -0.0011826833   -0.0347553341   -0.3174153916         -0.2516
C226       C   -0.0003892549   -0.0310977141   -0.3518229905         -0.2521
C227       C    0.0000000000    0.0000000000   -0.3672398422         -0.2524
C228       C   -0.0002534796    0.0282742757   -0.3470169489         -0.2523
C229       C   -0.0009439486    0.0262417389   -0.3124534656         -0.2518
H230       H   -0.0000739689   -0.0545453097   -0.3674839954         -0.2524
H231       H   -0.0015263191   -0.0605284066   -0.3060476353         -0.2513
H232       H   -0.0011544196    0.0497905627   -0.2969623874         -0.2516
H233       H    0.0000646279    0.0539930918   -0.3585738701         -0.2525
N234       N    0.0086576527    0.0838919835   -0.2110050013          0.7395
C185       C   -0.0000000000    0.0000000000    0.3672398422         -0.2533
C186       C    0.0126709749    0.0252463813    0.3467602057         -0.2513
C187       C    0.0104753950    0.0246409551    0.3123028888         -0.2528
C188       C   -0.0044745052   -0.0033057092    0.2961954596          0.7445
C189       C   -0.0197932639   -0.0282527374    0.3171438450          0.7402
C190       C   -0.0166122972   -0.0267529231    0.3519942549          0.7422
C191       C    0.0066903062   -0.0080836505    0.2624663484         -0.2448
H192       H    0.0208482107    0.0461954232    0.2973370032         -0.2514
H193       H    0.0253836601    0.0478497312    0.3578073471         -0.2485
Cl194     Cl   -0.0351880658   -0.0597033874    0.3766847309           0.738
C195       C   -0.0342912053   -0.0488909984    0.3031920702          0.7354
C196       C   -0.0042182016    0.0128297977    0.2371134319          0.7395
C197       C    0.0035723876    0.0047332845    0.2032945489         -0.2513
H198       H   -0.0198926616    0.0355735724    0.2428580552          0.7193
H199       H    0.0217701444   -0.0311092732    0.2561850097         -0.2249
C200       C    0.0142400185    0.0317262331    0.1825846084         -0.2516
C201       C    0.0121221416    0.0286404090    0.1481770095         -0.2521
C202       C   -0.0000000000    0.0000000000    0.1327601578         -0.2524
C203       C   -0.0104592693   -0.0262698040    0.1529830511         -0.2523
C204       C   -0.0090513438   -0.0246494031    0.1875465344         -0.2518
H205       H    0.0206986449    0.0504654573    0.1325160046         -0.2524
H206       H    0.0243060395    0.0554547932    0.1939523647         -0.2513
H207       H   -0.0177631625   -0.0465285168    0.2030376126         -0.2516
H208       H   -0.0204811375   -0.0499577936    0.1414261299         -0.2525
N209       N   -0.0397442157   -0.0743855978    0.2889949987          0.7395
loop_
_geom_bond_atom_site_label_1
_geom_bond_atom_site_label_2
_geom_bond_distance
_geom_bond_site_symmetry_2
_ccdc_geom_bond_type
Zn1          O5 1.942       .   S
Zn1          O6 1.922       .   S
Zn1         O10 1.922       .   S
Zn1         O17 1.922       .   S
Zn2          O5 1.942       .   S
Zn2          O7 1.922       .   S
Zn2          O9 1.922       .   S
Zn2         O13 1.922       .   S
Zn3          O5 1.942       .   S
Zn3          O8 1.922       .   S
Zn3         O11 1.922       .   S
Zn3         O14 1.922       .   S
Zn4          O5 1.942       .   S
Zn4         O12 1.922       .   S
Zn4         O15 1.922       .   S
Zn4         O16 1.922       .   S
O6          C18 1.304       .   A
O7          C19 1.304       .   A
O8          C20 1.304       .   A
O9          C18 1.304       .   A
O10         C20 1.304       .   A
O11         C19 1.304       .   A
O12         C21 1.304       .   A
O13         C22 1.304       .   A
O14         C21 1.304       .   A
O15         C22 1.304       .   A
O16         C23 1.304       .   A
O17         C23 1.304       .   A
C18        C202 1.540       .   S
C19        C252 1.540       .   S
C20        C327 1.540       .   S
C21        C210 1.540       .   S
C22        C285 1.540       .   S
C23        C277 1.540       .   S
Zn24        O28 1.942       .   S
Zn24        O29 1.922       .   S
Zn24        O33 1.922       .   S
Zn24        O40 1.922       .   S
Zn25        O28 1.942       .   S
Zn25        O30 1.922       .   S
Zn25        O32 1.922       .   S
Zn25        O36 1.922       .   S
Zn26        O28 1.942       .   S
Zn26        O31 1.922       .   S
Zn26        O34 1.922       .   S
Zn26        O37 1.922       .   S
Zn27        O28 1.942       .   S
Zn27        O35 1.922       .   S
Zn27        O38 1.922       .   S
Zn27        O39 1.922       .   S
O29         C41 1.304       .   A
O30         C42 1.304       .   A
O31         C43 1.304       .   A
O32         C41 1.304       .   A
O33         C43 1.304       .   A
O34         C42 1.304       .   A
O35         C44 1.304       .   A
O36         C45 1.304       .   A
O37         C44 1.304       .   A
O38         C45 1.304       .   A
O39         C46 1.304       .   A
O40         C46 1.304       .   A
C41        C185 1.540   1_655   S
C42        C352 1.540       .   S
C43        C402 1.540       .   S
C44        C227 1.540   1_656   S
C45        C410 1.540       .   S
C46        C377 1.540       .   S
Zn47        O51 1.942       .   S
Zn47        O52 1.922       .   S
Zn47        O56 1.922       .   S
Zn47        O63 1.922       .   S
Zn48        O51 1.942       .   S
Zn48        O53 1.922       .   S
Zn48        O55 1.922       .   S
Zn48        O59 1.922       .   S
Zn49        O51 1.942       .   S
Zn49        O54 1.922       .   S
Zn49        O57 1.922       .   S
Zn49        O60 1.922       .   S
Zn50        O51 1.942       .   S
Zn50        O58 1.922       .   S
Zn50        O61 1.922       .   S
Zn50        O62 1.922       .   S
O52         C64 1.304       .   A
O53         C65 1.304       .   A
O54         C66 1.304       .   A
O55         C64 1.304       .   A
O56         C66 1.304       .   A
O57         C65 1.304       .   A
O58         C67 1.304       .   A
O59         C68 1.304       .   A
O60         C67 1.304       .   A
O61         C68 1.304       .   A
O62         C69 1.304       .   A
O63         C69 1.304       .   A
C64        C302 1.540   1_655   S
C65        C485 1.540       .   S
C66        C460 1.540       .   S
C67        C310 1.540   1_665   S
C68        C452 1.540       .   S
C69        C527 1.540       .   S
Zn70        O74 1.942       .   S
Zn70        O75 1.922       .   S
Zn70        O79 1.922       .   S
Zn70        O86 1.922       .   S
Zn71        O74 1.942       .   S
Zn71        O76 1.922       .   S
Zn71        O78 1.922       .   S
Zn71        O82 1.922       .   S
Zn72        O74 1.942       .   S
Zn72        O77 1.922       .   S
Zn72        O80 1.922       .   S
Zn72        O83 1.922       .   S
Zn73        O74 1.942       .   S
Zn73        O81 1.922       .   S
Zn73        O84 1.922       .   S
Zn73        O85 1.922       .   S
O75         C87 1.304       .   A
O76         C88 1.304       .   A
O77         C89 1.304       .   A
O78         C87 1.304       .   A
O79         C89 1.304       .   A
O80         C88 1.304       .   A
O81         C90 1.304       .   A
O82         C91 1.304       .   A
O83         C90 1.304       .   A
O84         C91 1.304       .   A
O85         C92 1.304       .   A
O86         C92 1.304       .   A
C87        C385 1.540       .   S
C88        C435 1.540       .   S
C89        C577 1.540       .   S
C90        C427 1.540   1_565   S
C91        C535 1.540       .   S
C92        C477 1.540   1_556   S
Zn93        O97 1.942       .   S
Zn93        O98 1.922       .   S
Zn93       O102 1.922       .   S
Zn93       O109 1.922       .   S
Zn94        O97 1.942       .   S
Zn94        O99 1.922       .   S
Zn94       O101 1.922       .   S
Zn94       O105 1.922       .   S
Zn95        O97 1.942       .   S
Zn95       O100 1.922       .   S
Zn95       O103 1.922       .   S
Zn95       O106 1.922       .   S
Zn96        O97 1.942       .   S
Zn96       O104 1.922       .   S
Zn96       O107 1.922       .   S
Zn96       O108 1.922       .   S
O98        C110 1.304       .   A
O99        C111 1.304       .   A
O100       C112 1.304       .   A
O101       C110 1.304       .   A
O102       C112 1.304       .   A
O103       C111 1.304       .   A
O104       C113 1.304       .   A
O105       C114 1.304       .   A
O106       C113 1.304       .   A
O107       C114 1.304       .   A
O108       C115 1.304       .   A
O109       C115 1.304       .   A
C110       C602 1.540       .   S
C111       C235 1.540   1_565   S
C112       C635 1.540       .   S
C113       C610 1.540       .   S
C114       C677 1.540       .   S
C115       C260 1.540   1_665   S
Zn116      O120 1.942       .   S
Zn116      O121 1.922       .   S
Zn116      O125 1.922       .   S
Zn116      O132 1.922       .   S
Zn117      O120 1.942       .   S
Zn117      O122 1.922       .   S
Zn117      O124 1.922       .   S
Zn117      O128 1.922       .   S
Zn118      O120 1.942       .   S
Zn118      O123 1.922       .   S
Zn118      O126 1.922       .   S
Zn118      O129 1.922       .   S
Zn119      O120 1.942       .   S
Zn119      O127 1.922       .   S
Zn119      O130 1.922       .   S
Zn119      O131 1.922       .   S
O121       C133 1.304       .   A
O122       C134 1.304       .   A
O123       C135 1.304       .   A
O124       C133 1.304       .   A
O125       C135 1.304       .   A
O126       C134 1.304       .   A
O127       C136 1.304       .   A
O128       C137 1.304       .   A
O129       C136 1.304       .   A
O130       C137 1.304       .   A
O131       C138 1.304       .   A
O132       C138 1.304       .   A
C133       C335 1.540   1_465   S
C134       C585 1.540       .   S
C135       C685 1.540       .   S
C136       C360 1.540   1_565   S
C137       C710 1.540       .   S
C138       C627 1.540   1_556   S
Zn139      O143 1.942       .   S
Zn139      O144 1.922       .   S
Zn139      O148 1.922       .   S
Zn139      O155 1.922       .   S
Zn140      O143 1.942       .   S
Zn140      O145 1.922       .   S
Zn140      O147 1.922       .   S
Zn140      O151 1.922       .   S
Zn141      O143 1.942       .   S
Zn141      O146 1.922       .   S
Zn141      O149 1.922       .   S
Zn141      O152 1.922       .   S
Zn142      O143 1.942       .   S
Zn142      O150 1.922       .   S
Zn142      O153 1.922       .   S
Zn142      O154 1.922       .   S
O144       C156 1.304       .   A
O145       C157 1.304       .   A
O146       C158 1.304       .   A
O147       C156 1.304       .   A
O148       C158 1.304       .   A
O149       C157 1.304       .   A
O150       C159 1.304       .   A
O151       C160 1.304       .   A
O152       C159 1.304       .   A
O153       C160 1.304       .   A
O154       C161 1.304       .   A
O155       C161 1.304       .   A
C156       C502 1.540   1_455   S
C157       C652 1.540   1_545   S
C158       C777 1.540       .   S
C159       C510 1.540       .   S
C160       C752 1.540       .   S
C161       C660 1.540       .   S
Zn162      O166 1.942       .   S
Zn162      O167 1.922       .   S
Zn162      O171 1.922       .   S
Zn162      O178 1.922       .   S
Zn163      O166 1.942       .   S
Zn163      O168 1.922       .   S
Zn163      O170 1.922       .   S
Zn163      O174 1.922       .   S
Zn164      O166 1.942       .   S
Zn164      O169 1.922       .   S
Zn164      O172 1.922       .   S
Zn164      O175 1.922       .   S
Zn165      O166 1.942       .   S
Zn165      O173 1.922       .   S
Zn165      O176 1.922       .   S
Zn165      O177 1.922       .   S
O167       C179 1.304       .   A
O168       C180 1.304       .   A
O169       C181 1.304       .   A
O170       C179 1.304       .   A
O171       C181 1.304       .   A
O172       C180 1.304       .   A
O173       C182 1.304       .   A
O174       C183 1.304       .   A
O175       C182 1.304       .   A
O176       C183 1.304       .   A
O177       C184 1.304       .   A
O178       C184 1.304       .   A
C179       C552 1.540   1_455   S
C180       C702 1.540   1_545   S
C181       C735 1.540       .   S
C182       C560 1.540       .   S
C183       C760 1.540   1_556   S
C184       C727 1.540       .   S
C760       C761 0.031       .   A
C760       C765 0.031       .   A
C761       C762 0.030       .   A
C761       H768 0.025       .   A
C762       C763 0.031       .   A
C762       H767 0.025       .   A
C763       C764 0.031       .   A
C763       C766 0.031       .   A
C764       C765 0.031       .   A
C764       C770 0.025       .   A
C765      Cl769 0.040       .   A
C766       C771 0.030       .   A
C766       H774 0.025       .   A
C770       N784 0.026       .   A
C771       C772 0.031       .   A
C771       H773 0.025       .   A
C772       C775 0.031       .   A
C772       C779 0.031       .   A
C775       C776 0.030       .   A
C775       H781 0.025       .   A
C776       C777 0.030       .   A
C776       H780 0.025       .   A
C777       C778 0.030       .   A
C778       C779 0.030       .   A
C778       H783 0.025       .   A
C779       H782 0.025       .   A
C735       C736 0.031       .   A
C735       C740 0.031       .   A
C736       C737 0.030       .   A
C736       H743 0.025       .   A
C737       C738 0.031       .   A
C737       H742 0.025       .   A
C738       C739 0.031       .   A
C738       C741 0.031       .   A
C739       C740 0.031       .   A
C739       C745 0.025       .   A
C740      Cl744 0.040       .   A
C741       C746 0.030       .   A
C741       H749 0.025       .   A
C745       N759 0.026       .   A
C746       C747 0.031       .   A
C746       H748 0.025       .   A
C747       C750 0.031       .   A
C747       C754 0.031       .   A
C750       C751 0.030       .   A
C750       H756 0.025       .   A
C751       C752 0.030       .   A
C751       H755 0.025       .   A
C752       C753 0.030       .   A
C753       C754 0.030       .   A
C753       H758 0.025       .   A
C754       H757 0.025       .   A
C710       C711 0.031       .   A
C710       C715 0.031       .   A
C711       C712 0.030       .   A
C711       H718 0.025       .   A
C712       C713 0.031       .   A
C712       H717 0.025       .   A
C713       C714 0.031       .   A
C713       C716 0.031       .   A
C714       C715 0.031       .   A
C714       C720 0.025       .   A
C715      Cl719 0.040       .   A
C716       C721 0.030       .   A
C716       H724 0.025       .   A
C720       N734 0.026       .   A
C721       C722 0.031       .   A
C721       H723 0.025       .   A
C722       C725 0.031       .   A
C722       C729 0.031       .   A
C725       C726 0.030       .   A
C725       H731 0.025       .   A
C726       C727 0.030       .   A
C726       H730 0.025       .   A
C727       C728 0.030       .   A
C728       C729 0.030       .   A
C728       H733 0.025       .   A
C729       H732 0.025       .   A
C685       C686 0.031       .   A
C685       C690 0.031       .   A
C686       C687 0.030       .   A
C686       H693 0.025       .   A
C687       C688 0.031       .   A
C687       H692 0.025       .   A
C688       C689 0.031       .   A
C688       C691 0.031       .   A
C689       C690 0.031       .   A
C689       C695 0.025       .   A
C690      Cl694 0.040       .   A
C691       C696 0.030       .   A
C691       H699 0.025       .   A
C695       N709 0.026       .   A
C696       C697 0.031       .   A
C696       H698 0.025       .   A
C697       C700 0.031       .   A
C697       C704 0.031       .   A
C700       C701 0.030       .   A
C700       H706 0.025       .   A
C701       C702 0.030       .   A
C701       H705 0.025       .   A
C702       C703 0.030       .   A
C703       C704 0.030       .   A
C703       H708 0.025       .   A
C704       H707 0.025       .   A
C660       C661 0.031       .   A
C660       C665 0.031       .   A
C661       C662 0.030       .   A
C661       H668 0.025       .   A
C662       C663 0.031       .   A
C662       H667 0.025       .   A
C663       C664 0.031       .   A
C663       C666 0.031       .   A
C664       C665 0.031       .   A
C664       C670 0.025       .   A
C665      Cl669 0.040       .   A
C666       C671 0.030       .   A
C666       H674 0.025       .   A
C670       N684 0.026       .   A
C671       C672 0.031       .   A
C671       H673 0.025       .   A
C672       C675 0.031       .   A
C672       C679 0.031       .   A
C675       C676 0.030       .   A
C675       H681 0.025       .   A
C676       C677 0.030       .   A
C676       H680 0.025       .   A
C677       C678 0.030       .   A
C678       C679 0.030       .   A
C678       H683 0.025       .   A
C679       H682 0.025       .   A
C635       C636 0.031       .   A
C635       C640 0.031       .   A
C636       C637 0.030       .   A
C636       H643 0.025       .   A
C637       C638 0.031       .   A
C637       H642 0.025       .   A
C638       C639 0.031       .   A
C638       C641 0.031       .   A
C639       C640 0.031       .   A
C639       C645 0.025       .   A
C640      Cl644 0.040       .   A
C641       C646 0.030       .   A
C641       H649 0.025       .   A
C645       N659 0.026       .   A
C646       C647 0.031       .   A
C646       H648 0.025       .   A
C647       C650 0.031       .   A
C647       C654 0.031       .   A
C650       C651 0.030       .   A
C650       H656 0.025       .   A
C651       C652 0.030       .   A
C651       H655 0.025       .   A
C652       C653 0.030       .   A
C653       C654 0.030       .   A
C653       H658 0.025       .   A
C654       H657 0.025       .   A
C610       C611 0.031       .   A
C610       C615 0.031       .   A
C611       C612 0.030       .   A
C611       H618 0.025       .   A
C612       C613 0.031       .   A
C612       H617 0.025       .   A
C613       C614 0.031       .   A
C613       C616 0.031       .   A
C614       C615 0.031       .   A
C614       C620 0.025       .   A
C615      Cl619 0.040       .   A
C616       C621 0.030       .   A
C616       H624 0.025       .   A
C620       N634 0.026       .   A
C621       C622 0.031       .   A
C621       H623 0.025       .   A
C622       C625 0.031       .   A
C622       C629 0.031       .   A
C625       C626 0.030       .   A
C625       H631 0.025       .   A
C626       C627 0.030       .   A
C626       H630 0.025       .   A
C627       C628 0.030       .   A
C628       C629 0.030       .   A
C628       H633 0.025       .   A
C629       H632 0.025       .   A
C585       C586 0.031       .   A
C585       C590 0.031       .   A
C586       C587 0.030       .   A
C586       H593 0.025       .   A
C587       C588 0.031       .   A
C587       H592 0.025       .   A
C588       C589 0.031       .   A
C588       C591 0.031       .   A
C589       C590 0.031       .   A
C589       C595 0.025       .   A
C590      Cl594 0.040       .   A
C591       C596 0.030       .   A
C591       H599 0.025       .   A
C595       N609 0.026       .   A
C596       C597 0.031       .   A
C596       H598 0.025       .   A
C597       C600 0.031       .   A
C597       C604 0.031       .   A
C600       C601 0.030       .   A
C600       H606 0.025       .   A
C601       C602 0.030       .   A
C601       H605 0.025       .   A
C602       C603 0.030       .   A
C603       C604 0.030       .   A
C603       H608 0.025       .   A
C604       H607 0.025       .   A
C560       C561 0.031       .   A
C560       C565 0.031       .   A
C561       C562 0.030       .   A
C561       H568 0.025       .   A
C562       C563 0.031       .   A
C562       H567 0.025       .   A
C563       C564 0.031       .   A
C563       C566 0.031       .   A
C564       C565 0.031       .   A
C564       C570 0.025       .   A
C565      Cl569 0.040       .   A
C566       C571 0.030       .   A
C566       H574 0.025       .   A
C570       N584 0.026       .   A
C571       C572 0.031       .   A
C571       H573 0.025       .   A
C572       C575 0.031       .   A
C572       C579 0.031       .   A
C575       C576 0.030       .   A
C575       H581 0.025       .   A
C576       C577 0.030       .   A
C576       H580 0.025       .   A
C577       C578 0.030       .   A
C578       C579 0.030       .   A
C578       H583 0.025       .   A
C579       H582 0.025       .   A
C535       C536 0.031       .   A
C535       C540 0.031       .   A
C536       C537 0.030       .   A
C536       H543 0.025       .   A
C537       C538 0.031       .   A
C537       H542 0.025       .   A
C538       C539 0.031       .   A
C538       C541 0.031       .   A
C539       C540 0.031       .   A
C539       C545 0.025       .   A
C540      Cl544 0.040       .   A
C541       C546 0.030       .   A
C541       H549 0.025       .   A
C545       N559 0.026       .   A
C546       C547 0.031       .   A
C546       H548 0.025       .   A
C547       C550 0.031       .   A
C547       C554 0.031       .   A
C550       C551 0.030       .   A
C550       H556 0.025       .   A
C551       C552 0.030       .   A
C551       H555 0.025       .   A
C552       C553 0.030       .   A
C553       C554 0.030       .   A
C553       H558 0.025       .   A
C554       H557 0.025       .   A
C510       C511 0.031       .   A
C510       C515 0.031       .   A
C511       C512 0.030       .   A
C511       H518 0.025       .   A
C512       C513 0.031       .   A
C512       H517 0.025       .   A
C513       C514 0.031       .   A
C513       C516 0.031       .   A
C514       C515 0.031       .   A
C514       C520 0.025       .   A
C515      Cl519 0.040       .   A
C516       C521 0.030       .   A
C516       H524 0.025       .   A
C520       N534 0.026       .   A
C521       C522 0.031       .   A
C521       H523 0.025       .   A
C522       C525 0.031       .   A
C522       C529 0.031       .   A
C525       C526 0.030       .   A
C525       H531 0.025       .   A
C526       C527 0.030       .   A
C526       H530 0.025       .   A
C527       C528 0.030       .   A
C528       C529 0.030       .   A
C528       H533 0.025       .   A
C529       H532 0.025       .   A
C485       C486 0.031       .   A
C485       C490 0.031       .   A
C486       C487 0.030       .   A
C486       H493 0.025       .   A
C487       C488 0.031       .   A
C487       H492 0.025       .   A
C488       C489 0.031       .   A
C488       C491 0.031       .   A
C489       C490 0.031       .   A
C489       C495 0.025       .   A
C490      Cl494 0.040       .   A
C491       C496 0.030       .   A
C491       H499 0.025       .   A
C495       N509 0.026       .   A
C496       C497 0.031       .   A
C496       H498 0.025       .   A
C497       C500 0.031       .   A
C497       C504 0.031       .   A
C500       C501 0.030       .   A
C500       H506 0.025       .   A
C501       C502 0.030       .   A
C501       H505 0.025       .   A
C502       C503 0.030       .   A
C503       C504 0.030       .   A
C503       H508 0.025       .   A
C504       H507 0.025       .   A
C460       C461 0.031       .   A
C460       C465 0.031       .   A
C461       C462 0.030       .   A
C461       H468 0.025       .   A
C462       C463 0.031       .   A
C462       H467 0.025       .   A
C463       C464 0.031       .   A
C463       C466 0.031       .   A
C464       C465 0.031       .   A
C464       C470 0.025       .   A
C465      Cl469 0.040       .   A
C466       C471 0.030       .   A
C466       H474 0.025       .   A
C470       N484 0.026       .   A
C471       C472 0.031       .   A
C471       H473 0.025       .   A
C472       C475 0.031       .   A
C472       C479 0.031       .   A
C475       C476 0.030       .   A
C475       H481 0.025       .   A
C476       C477 0.030       .   A
C476       H480 0.025       .   A
C477       C478 0.030       .   A
C478       C479 0.030       .   A
C478       H483 0.025       .   A
C479       H482 0.025       .   A
C435       C436 0.031       .   A
C435       C440 0.031       .   A
C436       C437 0.030       .   A
C436       H443 0.025       .   A
C437       C438 0.031       .   A
C437       H442 0.025       .   A
C438       C439 0.031       .   A
C438       C441 0.031       .   A
C439       C440 0.031       .   A
C439       C445 0.025       .   A
C440      Cl444 0.040       .   A
C441       C446 0.030       .   A
C441       H449 0.025       .   A
C445       N459 0.026       .   A
C446       C447 0.031       .   A
C446       H448 0.025       .   A
C447       C450 0.031       .   A
C447       C454 0.031       .   A
C450       C451 0.030       .   A
C450       H456 0.025       .   A
C451       C452 0.030       .   A
C451       H455 0.025       .   A
C452       C453 0.030       .   A
C453       C454 0.030       .   A
C453       H458 0.025       .   A
C454       H457 0.025       .   A
C410       C411 0.031       .   A
C410       C415 0.031       .   A
C411       C412 0.030       .   A
C411       H418 0.025       .   A
C412       C413 0.031       .   A
C412       H417 0.025       .   A
C413       C414 0.031       .   A
C413       C416 0.031       .   A
C414       C415 0.031       .   A
C414       C420 0.025       .   A
C415      Cl419 0.040       .   A
C416       C421 0.030       .   A
C416       H424 0.025       .   A
C420       N434 0.026       .   A
C421       C422 0.031       .   A
C421       H423 0.025       .   A
C422       C425 0.031       .   A
C422       C429 0.031       .   A
C425       C426 0.030       .   A
C425       H431 0.025       .   A
C426       C427 0.030       .   A
C426       H430 0.025       .   A
C427       C428 0.030       .   A
C428       C429 0.030       .   A
C428       H433 0.025       .   A
C429       H432 0.025       .   A
C385       C386 0.031       .   A
C385       C390 0.031       .   A
C386       C387 0.030       .   A
C386       H393 0.025       .   A
C387       C388 0.031       .   A
C387       H392 0.025       .   A
C388       C389 0.031       .   A
C388       C391 0.031       .   A
C389       C390 0.031       .   A
C389       C395 0.025       .   A
C390      Cl394 0.040       .   A
C391       C396 0.030       .   A
C391       H399 0.025       .   A
C395       N409 0.026       .   A
C396       C397 0.031       .   A
C396       H398 0.025       .   A
C397       C400 0.031       .   A
C397       C404 0.031       .   A
C400       C401 0.030       .   A
C400       H406 0.025       .   A
C401       C402 0.030       .   A
C401       H405 0.025       .   A
C402       C403 0.030       .   A
C403       C404 0.030       .   A
C403       H408 0.025       .   A
C404       H407 0.025       .   A
C360       C361 0.031       .   A
C360       C365 0.031       .   A
C361       C362 0.030       .   A
C361       H368 0.025       .   A
C362       C363 0.031       .   A
C362       H367 0.025       .   A
C363       C364 0.031       .   A
C363       C366 0.031       .   A
C364       C365 0.031       .   A
C364       C370 0.025       .   A
C365      Cl369 0.040       .   A
C366       C371 0.030       .   A
C366       H374 0.025       .   A
C370       N384 0.026       .   A
C371       C372 0.031       .   A
C371       H373 0.025       .   A
C372       C375 0.031       .   A
C372       C379 0.031       .   A
C375       C376 0.030       .   A
C375       H381 0.025       .   A
C376       C377 0.030       .   A
C376       H380 0.025       .   A
C377       C378 0.030       .   A
C378       C379 0.030       .   A
C378       H383 0.025       .   A
C379       H382 0.025       .   A
C335       C336 0.031       .   A
C335       C340 0.031       .   A
C336       C337 0.030       .   A
C336       H343 0.025       .   A
C337       C338 0.031       .   A
C337       H342 0.025       .   A
C338       C339 0.031       .   A
C338       C341 0.031       .   A
C339       C340 0.031       .   A
C339       C345 0.025       .   A
C340      Cl344 0.040       .   A
C341       C346 0.030       .   A
C341       H349 0.025       .   A
C345       N359 0.026       .   A
C346       C347 0.031       .   A
C346       H348 0.025       .   A
C347       C350 0.031       .   A
C347       C354 0.031       .   A
C350       C351 0.030       .   A
C350       H356 0.025       .   A
C351       C352 0.030       .   A
C351       H355 0.025       .   A
C352       C353 0.030       .   A
C353       C354 0.030       .   A
C353       H358 0.025       .   A
C354       H357 0.025       .   A
C310       C311 0.031       .   A
C310       C315 0.031       .   A
C311       C312 0.030       .   A
C311       H318 0.025       .   A
C312       C313 0.031       .   A
C312       H317 0.025       .   A
C313       C314 0.031       .   A
C313       C316 0.031       .   A
C314       C315 0.031       .   A
C314       C320 0.025       .   A
C315      Cl319 0.040       .   A
C316       C321 0.030       .   A
C316       H324 0.025       .   A
C320       N334 0.026       .   A
C321       C322 0.031       .   A
C321       H323 0.025       .   A
C322       C325 0.031       .   A
C322       C329 0.031       .   A
C325       C326 0.030       .   A
C325       H331 0.025       .   A
C326       C327 0.030       .   A
C326       H330 0.025       .   A
C327       C328 0.030       .   A
C328       C329 0.030       .   A
C328       H333 0.025       .   A
C329       H332 0.025       .   A
C285       C286 0.031       .   A
C285       C290 0.031       .   A
C286       C287 0.030       .   A
C286       H293 0.025       .   A
C287       C288 0.031       .   A
C287       H292 0.025       .   A
C288       C289 0.031       .   A
C288       C291 0.031       .   A
C289       C290 0.031       .   A
C289       C295 0.025       .   A
C290      Cl294 0.040       .   A
C291       C296 0.030       .   A
C291       H299 0.025       .   A
C295       N309 0.026       .   A
C296       C297 0.031       .   A
C296       H298 0.025       .   A
C297       C300 0.031       .   A
C297       C304 0.031       .   A
C300       C301 0.030       .   A
C300       H306 0.025       .   A
C301       C302 0.030       .   A
C301       H305 0.025       .   A
C302       C303 0.030       .   A
C303       C304 0.030       .   A
C303       H308 0.025       .   A
C304       H307 0.025       .   A
C260       C261 0.031       .   A
C260       C265 0.031       .   A
C261       C262 0.030       .   A
C261       H268 0.025       .   A
C262       C263 0.031       .   A
C262       H267 0.025       .   A
C263       C264 0.031       .   A
C263       C266 0.031       .   A
C264       C265 0.031       .   A
C264       C270 0.025       .   A
C265      Cl269 0.040       .   A
C266       C271 0.030       .   A
C266       H274 0.025       .   A
C270       N284 0.026       .   A
C271       C272 0.031       .   A
C271       H273 0.025       .   A
C272       C275 0.031       .   A
C272       C279 0.031       .   A
C275       C276 0.030       .   A
C275       H281 0.025       .   A
C276       C277 0.030       .   A
C276       H280 0.025       .   A
C277       C278 0.030       .   A
C278       C279 0.030       .   A
C278       H283 0.025       .   A
C279       H282 0.025       .   A
C235       C236 0.031       .   A
C235       C240 0.031       .   A
C236       C237 0.030       .   A
C236       H243 0.025       .   A
C237       C238 0.031       .   A
C237       H242 0.025       .   A
C238       C239 0.031       .   A
C238       C241 0.031       .   A
C239       C240 0.031       .   A
C239       C245 0.025       .   A
C240      Cl244 0.040       .   A
C241       C246 0.030       .   A
C241       H249 0.025       .   A
C245       N259 0.026       .   A
C246       C247 0.031       .   A
C246       H248 0.025       .   A
C247       C250 0.031       .   A
C247       C254 0.031       .   A
C250       C251 0.030       .   A
C250       H256 0.025       .   A
C251       C252 0.030       .   A
C251       H255 0.025       .   A
C252       C253 0.030       .   A
C253       C254 0.030       .   A
C253       H258 0.025       .   A
C254       H257 0.025       .   A
C210       C211 0.031       .   A
C210       C215 0.031       .   A
C211       C212 0.030       .   A
C211       H218 0.025       .   A
C212       C213 0.031       .   A
C212       H217 0.025       .   A
C213       C214 0.031       .   A
C213       C216 0.031       .   A
C214       C215 0.031       .   A
C214       C220 0.025       .   A
C215      Cl219 0.040       .   A
C216       C221 0.030       .   A
C216       H224 0.025       .   A
C220       N234 0.026       .   A
C221       C222 0.031       .   A
C221       H223 0.025       .   A
C222       C225 0.031       .   A
C222       C229 0.031       .   A
C225       C226 0.030       .   A
C225       H231 0.025       .   A
C226       C227 0.030       .   A
C226       H230 0.025       .   A
C227       C228 0.030       .   A
C228       C229 0.030       .   A
C228       H233 0.025       .   A
C229       H232 0.025       .   A
C185       C186 0.031       .   A
C185       C190 0.031       .   A
C186       C187 0.030       .   A
C186       H193 0.025       .   A
C187       C188 0.031       .   A
C187       H192 0.025       .   A
C188       C189 0.031       .   A
C188       C191 0.031       .   A
C189       C190 0.031       .   A
C189       C195 0.025       .   A
C190      Cl194 0.040       .   A
C191       C196 0.030       .   A
C191       H199 0.025       .   A
C195       N209 0.026       .   A
C196       C197 0.031       .   A
C196       H198 0.025       .   A
C197       C200 0.031       .   A
C197       C204 0.031       .   A
C200       C201 0.030       .   A
C200       H206 0.025       .   A
C201       C202 0.030       .   A
C201       H205 0.025       .   A
C202       C203 0.030       .   A
C203       C204 0.030       .   A
C203       H208 0.025       .   A
C204       H207 0.025       .   A
