data_pcu_v1-6c_Zn_1_Ch_1-26_fer_tobacco
_audit_creation_date              2021-02-03
_audit_creation_method            'tobacco_3.0'
_symmetry_space_group_name_H-M    'P1'
_symmetry_Int_Tables_number       1
_symmetry_cell_setting            triclinic
loop_
_symmetry_equiv_pos_as_xyz
  x,y,z
_cell_length_a                    38.69850176005724
_cell_length_b                    38.69850176005724
_cell_length_c                    38.69850176005724
_cell_angle_alpha                 90.0
_cell_angle_beta                  90.0
_cell_angle_gamma                 90.0
loop_
_atom_site_label
_atom_site_type_symbol
_atom_site_fract_x
_atom_site_fract_y
_atom_site_fract_z
_atom_site_charge
Zn1       Zn   -0.0289726979   -0.0289726979   -0.0289726979          1.4972
Zn2       Zn    0.0289726979    0.0289726979   -0.0289726979          1.4936
Zn3       Zn   -0.0289726979    0.0289726979    0.0289726979          1.4911
Zn4       Zn    0.0289726979   -0.0289726979    0.0289726979          1.4948
O5         O    0.0000000000    0.0000000000    0.0000000000          -2.305
O6         O   -0.0212928140   -0.0212928140   -0.0774345224         -1.2113
O7         O    0.0212928140    0.0774345224   -0.0212928140         -1.2095
O8         O   -0.0774345224    0.0212928140    0.0212928140         -1.2046
O9         O    0.0212928140    0.0212928140   -0.0774345224         -1.2114
O10        O   -0.0774345224   -0.0212928140   -0.0212928140         -1.2074
O11        O   -0.0212928140    0.0774345224    0.0212928140         -1.2133
O12        O    0.0212928140   -0.0212928140    0.0774345224         -1.2072
O13        O    0.0774345224    0.0212928140   -0.0212928140         -1.2147
O14        O   -0.0212928140    0.0212928140    0.0774345224         -1.2086
O15        O    0.0774345224   -0.0212928140    0.0212928140         -1.2133
O16        O    0.0212928140   -0.0774345224    0.0212928140         -1.2124
O17        O   -0.0212928140   -0.0774345224   -0.0212928140         -1.2103
C18        C   -0.0000000000   -0.0000000000   -0.0925823956          0.3076
C19        C    0.0000000000    0.0925823956    0.0000000000          0.3125
C20        C   -0.0925823956    0.0000000000    0.0000000000          0.3021
C21        C    0.0000000000    0.0000000000    0.0925823956          0.3059
C22        C    0.0925823956   -0.0000000000   -0.0000000000          0.3172
C23        C   -0.0000000000   -0.0925823956   -0.0000000000          0.3077
Zn24      Zn    0.9710273021    0.0289726979    0.4710273021          1.4972
Zn25      Zn    1.0289726979   -0.0289726979    0.4710273021          1.4936
Zn26      Zn    1.0289726979    0.0289726979    0.5289726979          1.4911
Zn27      Zn    0.9710273021   -0.0289726979    0.5289726979          1.4948
O28        O    1.0000000000    0.0000000000    0.5000000000          -2.305
O29        O    0.9787071860    0.0212928140    0.4225654776         -1.2113
O30        O    1.0774345224   -0.0212928140    0.4787071860         -1.2095
O31        O    1.0212928140    0.0774345224    0.5212928140         -1.2046
O32        O    1.0212928140   -0.0212928140    0.4225654776         -1.2114
O33        O    0.9787071860    0.0774345224    0.4787071860         -1.2074
O34        O    1.0774345224    0.0212928140    0.5212928140         -1.2133
O35        O    0.9787071860   -0.0212928140    0.5774345224         -1.2072
O36        O    1.0212928140   -0.0774345224    0.4787071860         -1.2147
O37        O    1.0212928140    0.0212928140    0.5774345224         -1.2086
O38        O    0.9787071860   -0.0774345224    0.5212928140         -1.2133
O39        O    0.9225654776   -0.0212928140    0.5212928140         -1.2124
O40        O    0.9225654776    0.0212928140    0.4787071860         -1.2103
C41        C    1.0000000000    0.0000000000    0.4074176044          0.3076
C42        C    1.0925823956    0.0000000000    0.5000000000          0.3125
C43        C    1.0000000000    0.0925823956    0.5000000000          0.3021
C44        C    1.0000000000    0.0000000000    0.5925823956          0.3059
C45        C    1.0000000000   -0.0925823956    0.5000000000          0.3172
C46        C    0.9074176044    0.0000000000    0.5000000000          0.3077
Zn47      Zn    1.0289726979    0.4710273021   -0.0289726979          1.4972
Zn48      Zn    0.9710273021    0.4710273021    0.0289726979          1.4936
Zn49      Zn    1.0289726979    0.5289726979    0.0289726979          1.4911
Zn50      Zn    0.9710273021    0.5289726979   -0.0289726979          1.4948
O51        O    1.0000000000    0.5000000000    0.0000000000          -2.305
O52        O    1.0212928140    0.4225654776   -0.0212928140         -1.2113
O53        O    0.9787071860    0.4787071860    0.0774345224         -1.2095
O54        O    1.0774345224    0.5212928140    0.0212928140         -1.2046
O55        O    0.9787071860    0.4225654776    0.0212928140         -1.2114
O56        O    1.0774345224    0.4787071860   -0.0212928140         -1.2074
O57        O    1.0212928140    0.5212928140    0.0774345224         -1.2133
O58        O    0.9787071860    0.5774345224   -0.0212928140         -1.2072
O59        O    0.9225654776    0.4787071860    0.0212928140         -1.2147
O60        O    1.0212928140    0.5774345224    0.0212928140         -1.2086
O61        O    0.9225654776    0.5212928140   -0.0212928140         -1.2133
O62        O    0.9787071860    0.5212928140   -0.0774345224         -1.2124
O63        O    1.0212928140    0.4787071860   -0.0774345224         -1.2103
C64        C    1.0000000000    0.4074176044    0.0000000000          0.3076
C65        C    1.0000000000    0.5000000000    0.0925823956          0.3125
C66        C    1.0925823956    0.5000000000    0.0000000000          0.3021
C67        C    1.0000000000    0.5925823956    0.0000000000          0.3059
C68        C    0.9074176044    0.5000000000    0.0000000000          0.3172
C69        C    1.0000000000    0.5000000000   -0.0925823956          0.3077
Zn70      Zn    0.9710273021    0.4710273021    0.5289726979          1.4972
Zn71      Zn    1.0289726979    0.4710273021    0.4710273021          1.4936
Zn72      Zn    0.9710273021    0.5289726979    0.4710273021          1.4911
Zn73      Zn    1.0289726979    0.5289726979    0.5289726979          1.4948
O74        O    1.0000000000    0.5000000000    0.5000000000          -2.305
O75        O    0.9787071860    0.4225654776    0.5212928140         -1.2113
O76        O    1.0212928140    0.4787071860    0.4225654776         -1.2095
O77        O    0.9225654776    0.5212928140    0.4787071860         -1.2046
O78        O    1.0212928140    0.4225654776    0.4787071860         -1.2114
O79        O    0.9225654776    0.4787071860    0.5212928140         -1.2074
O80        O    0.9787071860    0.5212928140    0.4225654776         -1.2133
O81        O    1.0212928140    0.5774345224    0.5212928140         -1.2072
O82        O    1.0774345224    0.4787071860    0.4787071860         -1.2147
O83        O    0.9787071860    0.5774345224    0.4787071860         -1.2086
O84        O    1.0774345224    0.5212928140    0.5212928140         -1.2133
O85        O    1.0212928140    0.5212928140    0.5774345224         -1.2124
O86        O    0.9787071860    0.4787071860    0.5774345224         -1.2103
C87        C    1.0000000000    0.4074176044    0.5000000000          0.3076
C88        C    1.0000000000    0.5000000000    0.4074176044          0.3125
C89        C    0.9074176044    0.5000000000    0.5000000000          0.3021
C90        C    1.0000000000    0.5925823956    0.5000000000          0.3059
C91        C    1.0925823956    0.5000000000    0.5000000000          0.3172
C92        C    1.0000000000    0.5000000000    0.5925823956          0.3077
Zn93      Zn    0.4710273021    0.9710273021   -0.0289726979          1.4972
Zn94      Zn    0.4710273021    1.0289726979    0.0289726979          1.4936
Zn95      Zn    0.5289726979    0.9710273021    0.0289726979          1.4911
Zn96      Zn    0.5289726979    1.0289726979   -0.0289726979          1.4948
O97        O    0.5000000000    1.0000000000    0.0000000000          -2.305
O98        O    0.4225654776    0.9787071860   -0.0212928140         -1.2113
O99        O    0.4787071860    1.0212928140    0.0774345224         -1.2095
O100       O    0.5212928140    0.9225654776    0.0212928140         -1.2046
O101       O    0.4225654776    1.0212928140    0.0212928140         -1.2114
O102       O    0.4787071860    0.9225654776   -0.0212928140         -1.2074
O103       O    0.5212928140    0.9787071860    0.0774345224         -1.2133
O104       O    0.5774345224    1.0212928140   -0.0212928140         -1.2072
O105       O    0.4787071860    1.0774345224    0.0212928140         -1.2147
O106       O    0.5774345224    0.9787071860    0.0212928140         -1.2086
O107       O    0.5212928140    1.0774345224   -0.0212928140         -1.2133
O108       O    0.5212928140    1.0212928140   -0.0774345224         -1.2124
O109       O    0.4787071860    0.9787071860   -0.0774345224         -1.2103
C110       C    0.4074176044    1.0000000000    0.0000000000          0.3076
C111       C    0.5000000000    1.0000000000    0.0925823956          0.3125
C112       C    0.5000000000    0.9074176044    0.0000000000          0.3021
C113       C    0.5925823956    1.0000000000    0.0000000000          0.3059
C114       C    0.5000000000    1.0925823956    0.0000000000          0.3172
C115       C    0.5000000000    1.0000000000   -0.0925823956          0.3077
Zn116     Zn    0.5289726979    1.0289726979    0.4710273021          1.4972
Zn117     Zn    0.4710273021    1.0289726979    0.5289726979          1.4936
Zn118     Zn    0.4710273021    0.9710273021    0.4710273021          1.4911
Zn119     Zn    0.5289726979    0.9710273021    0.5289726979          1.4948
O120       O    0.5000000000    1.0000000000    0.5000000000          -2.305
O121       O    0.5212928140    1.0774345224    0.4787071860         -1.2113
O122       O    0.4225654776    1.0212928140    0.5212928140         -1.2095
O123       O    0.4787071860    0.9787071860    0.4225654776         -1.2046
O124       O    0.4787071860    1.0774345224    0.5212928140         -1.2114
O125       O    0.5212928140    1.0212928140    0.4225654776         -1.2074
O126       O    0.4225654776    0.9787071860    0.4787071860         -1.2133
O127       O    0.5212928140    0.9225654776    0.5212928140         -1.2072
O128       O    0.4787071860    1.0212928140    0.5774345224         -1.2147
O129       O    0.4787071860    0.9225654776    0.4787071860         -1.2086
O130       O    0.5212928140    0.9787071860    0.5774345224         -1.2133
O131       O    0.5774345224    0.9787071860    0.5212928140         -1.2124
O132       O    0.5774345224    1.0212928140    0.4787071860         -1.2103
C133       C    0.5000000000    1.0925823956    0.5000000000          0.3076
C134       C    0.4074176044    1.0000000000    0.5000000000          0.3125
C135       C    0.5000000000    1.0000000000    0.4074176044          0.3021
C136       C    0.5000000000    0.9074176044    0.5000000000          0.3059
C137       C    0.5000000000    1.0000000000    0.5925823956          0.3172
C138       C    0.5925823956    1.0000000000    0.5000000000          0.3077
Zn139     Zn    0.4710273021    0.5289726979   -0.0289726979          1.4972
Zn140     Zn    0.4710273021    0.4710273021    0.0289726979          1.4936
Zn141     Zn    0.5289726979    0.4710273021   -0.0289726979          1.4911
Zn142     Zn    0.5289726979    0.5289726979    0.0289726979          1.4948
O143       O    0.5000000000    0.5000000000    0.0000000000          -2.305
O144       O    0.4225654776    0.5212928140   -0.0212928140         -1.2113
O145       O    0.4787071860    0.4225654776    0.0212928140         -1.2095
O146       O    0.5212928140    0.4787071860   -0.0774345224         -1.2046
O147       O    0.4225654776    0.4787071860    0.0212928140         -1.2114
O148       O    0.4787071860    0.5212928140   -0.0774345224         -1.2074
O149       O    0.5212928140    0.4225654776   -0.0212928140         -1.2133
O150       O    0.5774345224    0.5212928140    0.0212928140         -1.2072
O151       O    0.4787071860    0.4787071860    0.0774345224         -1.2147
O152       O    0.5774345224    0.4787071860   -0.0212928140         -1.2086
O153       O    0.5212928140    0.5212928140    0.0774345224         -1.2133
O154       O    0.5212928140    0.5774345224    0.0212928140         -1.2124
O155       O    0.4787071860    0.5774345224   -0.0212928140         -1.2103
C156       C    0.4074176044    0.5000000000    0.0000000000          0.3076
C157       C    0.5000000000    0.4074176044    0.0000000000          0.3125
C158       C    0.5000000000    0.5000000000   -0.0925823956          0.3021
C159       C    0.5925823956    0.5000000000    0.0000000000          0.3059
C160       C    0.5000000000    0.5000000000    0.0925823956          0.3172
C161       C    0.5000000000    0.5925823956    0.0000000000          0.3077
Zn162     Zn    0.4710273021    0.5289726979    0.4710273021          1.4972
Zn163     Zn    0.4710273021    0.4710273021    0.5289726979          1.4936
Zn164     Zn    0.5289726979    0.4710273021    0.4710273021          1.4911
Zn165     Zn    0.5289726979    0.5289726979    0.5289726979          1.4948
O166       O    0.5000000000    0.5000000000    0.5000000000          -2.305
O167       O    0.4225654776    0.5212928140    0.4787071860         -1.2113
O168       O    0.4787071860    0.4225654776    0.5212928140         -1.2095
O169       O    0.5212928140    0.4787071860    0.4225654776         -1.2046
O170       O    0.4225654776    0.4787071860    0.5212928140         -1.2114
O171       O    0.4787071860    0.5212928140    0.4225654776         -1.2074
O172       O    0.5212928140    0.4225654776    0.4787071860         -1.2133
O173       O    0.5774345224    0.5212928140    0.5212928140         -1.2072
O174       O    0.4787071860    0.4787071860    0.5774345224         -1.2147
O175       O    0.5774345224    0.4787071860    0.4787071860         -1.2086
O176       O    0.5212928140    0.5212928140    0.5774345224         -1.2133
O177       O    0.5212928140    0.5774345224    0.5212928140         -1.2124
O178       O    0.4787071860    0.5774345224    0.4787071860         -1.2103
C179       C    0.4074176044    0.5000000000    0.5000000000          0.3076
C180       C    0.5000000000    0.4074176044    0.5000000000          0.3125
C181       C    0.5000000000    0.5000000000    0.4074176044          0.3021
C182       C    0.5925823956    0.5000000000    0.5000000000          0.3059
C183       C    0.5000000000    0.5000000000    0.5925823956          0.3172
C184       C    0.5000000000    0.5925823956    0.5000000000          0.3077
C875       C    0.5000000000    0.5000000000   -0.3676227821          0.5302
C876       C    0.4916351427    0.4661217977   -0.3675243958          0.5226
C877       C    0.4811001239    0.4496534005   -0.3383844155          0.5181
C878       C    0.4758355722    0.4675844263   -0.3089947952          0.5184
C879       C    0.4808707162    0.5013982891   -0.3102559650          0.5228
C880       C    0.4941237480    0.5162016606   -0.3380412069            0.53
C881       C    0.4698887110    0.4503605065   -0.2735757370          0.5192
C882       C    0.4777911685    0.4106055312   -0.3383914593           0.515
H883       H    0.4967586582    0.4504612518   -0.3902831068          0.5233
O884       O    0.5150609362    0.5398518017   -0.3285154532         -0.4494
H885       H    0.4794934263    0.5169103406   -0.2868577788          0.5257
C886       C    0.4733627592    0.4741943722   -0.2409771569           0.528
N887       N    0.4780579581    0.4532843198   -0.2092952638         -0.4624
N888       N    0.4592539924    0.4336728041   -0.2181948188          0.5191
N889       N    0.4689014568    0.4322617860   -0.2515643217           0.522
C890       C    0.4670504611    0.4698352163   -0.1762784560         -0.4666
H891       H    0.4962242076    0.4907878886   -0.2430800785         -0.4517
H892       H    0.4506276616    0.4911204688   -0.2388068728          0.5079
H893       H    0.4888085613    0.4294030901   -0.2712988129         -0.4634
C894       C    0.4815611158    0.5054690637   -0.1651980967         -0.4515
N895       N    0.5000000000    0.5000000000   -0.1323772179         -0.4292
N896       N    0.5178958905    0.4818653132   -0.1454049208         -0.4154
N897       N    0.4918648127    0.4655761003   -0.1622227585         -0.4418
H898       H    0.4968835448    0.5194583750   -0.1849478790         -0.4411
H899       H    0.4594639306    0.5224540204   -0.1600392298          0.5295
H900       H    0.4650790313    0.4509786714   -0.1550254736         -0.4647
H901       H    0.4786048973    0.3998447507   -0.3643982112          0.5113
H902       H    0.4536685038    0.4023960864   -0.3262056529          0.4954
H903       H    0.4991742831    0.3991673710   -0.3237798797         -0.4632
H904       H    0.5253150688    0.5190212285   -0.3172411608         -0.4382
C845       C    0.5000000000    0.5000000000    0.3676227821          0.5302
C846       C    0.5338782023    0.5083648573    0.3675243958          0.5226
C847       C    0.5503465995    0.5188998761    0.3383844155          0.5181
C848       C    0.5324155737    0.5241644278    0.3089947952          0.5184
C849       C    0.4986017109    0.5191292838    0.3102559650          0.5228
C850       C    0.4837983394    0.5058762520    0.3380412069            0.53
C851       C    0.5496394935    0.5301112890    0.2735757370          0.5192
C852       C    0.5893944688    0.5222088315    0.3383914593           0.515
H853       H    0.5495387482    0.5032413418    0.3902831068          0.5233
O854       O    0.4601481983    0.4849390638    0.3285154532         -0.4494
H855       H    0.4830896594    0.5205065737    0.2868577788          0.5257
C856       C    0.5258056278    0.5266372408    0.2409771569           0.528
N857       N    0.5467156802    0.5219420419    0.2092952638         -0.4624
N858       N    0.5663271959    0.5407460076    0.2181948188          0.5191
N859       N    0.5677382140    0.5310985432    0.2515643217           0.522
C860       C    0.5301647837    0.5329495389    0.1762784560         -0.4666
H861       H    0.5092121114    0.5037757924    0.2430800785         -0.4517
H862       H    0.5088795312    0.5493723384    0.2388068728          0.5079
H863       H    0.5705969099    0.5111914387    0.2712988129         -0.4634
C864       C    0.4945309363    0.5184388842    0.1651980967         -0.4515
N865       N    0.5000000000    0.5000000000    0.1323772179         -0.4292
N866       N    0.5181346868    0.4821041095    0.1454049208         -0.4154
N867       N    0.5344238997    0.5081351873    0.1622227585         -0.4418
H868       H    0.4805416250    0.5031164552    0.1849478790         -0.4411
H869       H    0.4775459796    0.5405360694    0.1600392298          0.5295
H870       H    0.5490213286    0.5349209687    0.1550254736         -0.4647
H871       H    0.6001552493    0.5213951027    0.3643982112          0.5113
H872       H    0.5976039136    0.5463314962    0.3262056529          0.4954
H873       H    0.6008326290    0.5008257169    0.3237798797         -0.4632
H874       H    0.4809787715    0.4746849312    0.3172411608         -0.4382
C815       C    0.5000000000    0.6323772179    0.5000000000          0.5302
C816       C    0.4658829058    0.6324756042    0.4926701082          0.5226
C817       C    0.4491015022    0.6616155845    0.4826411890          0.5181
C818       C    0.4668639935    0.6910052048    0.4768333416          0.5184
C819       C    0.5008154375    0.6897440350    0.4808370208          0.5228
C820       C    0.5160153101    0.6619587931    0.4936333692            0.53
C821       C    0.4494670588    0.7264242630    0.4714134490          0.5192
C822       C    0.4099710134    0.6616085407    0.4805221969           0.515
H823       H    0.4503855501    0.6097168932    0.4982678823          0.5233
O824       O    0.5402917229    0.6714845468    0.5138410609         -0.4494
H825       H    0.5162783847    0.7131422212    0.4789882563          0.5257
C826       C    0.4733956167    0.7590228431    0.4741604989           0.528
N827       N    0.4526381505    0.7907047362    0.4794899247         -0.4624
N828       N    0.4324634172    0.7818051812    0.4612915508          0.5191
N829       N    0.4313466755    0.7484356783    0.4709774906           0.522
C830       C    0.4688463641    0.8237215440    0.4679837969         -0.4666
H831       H    0.4906772391    0.7569199215    0.4965063293         -0.4517
H832       H    0.4896219246    0.7611931272    0.4509207842          0.5079
H833       H    0.4290951808    0.7287011871    0.4909623780         -0.4634
C834       C    0.5049053387    0.8348019033    0.4814032057         -0.4515
N835       N    0.5000000000    0.8676227821    0.5000000000         -0.4292
N836       N    0.4824183795    0.8545950792    0.5184395332         -0.4154
N837       N    0.4653444513    0.8377772415    0.4929162802         -0.4418
H838       H    0.5193545108    0.8150521210    0.4962927687         -0.4411
H839       H    0.5212098944    0.8399607702    0.4587993164          0.5295
H840       H    0.4499385537    0.8449745264    0.4665871835         -0.4647
H841       H    0.3992399839    0.6356017888    0.4816630554          0.5113
H842       H    0.4010311932    0.6737943471    0.4566605634          0.4954
H843       H    0.3991889517    0.6762201203    0.5022435284         -0.4632
H844       H    0.5197828863    0.6827588392    0.5247244262         -0.4382
C785       C    0.5000000000    1.1323772179    0.5000000000          0.5302
C786       C    0.4661217977    1.1324756042    0.4916351427          0.5226
C787       C    0.4496534005    1.1616155845    0.4811001239          0.5181
C788       C    0.4675844263    1.1910052048    0.4758355722          0.5184
C789       C    0.5013982891    1.1897440350    0.4808707162          0.5228
C790       C    0.5162016606    1.1619587931    0.4941237480            0.53
C791       C    0.4503605065    1.2264242630    0.4698887110          0.5192
C792       C    0.4106055312    1.1616085407    0.4777911685           0.515
H793       H    0.4504612518    1.1097168932    0.4967586582          0.5233
O794       O    0.5398518017    1.1714845468    0.5150609362         -0.4494
H795       H    0.5169103406    1.2131422212    0.4794934263          0.5257
C796       C    0.4741943722    1.2590228431    0.4733627592           0.528
N797       N    0.4532843198    1.2907047362    0.4780579581         -0.4624
N798       N    0.4336728041    1.2818051812    0.4592539924          0.5191
N799       N    0.4322617860    1.2484356783    0.4689014568           0.522
C800       C    0.4698352163    1.3237215440    0.4670504611         -0.4666
H801       H    0.4907878886    1.2569199215    0.4962242076         -0.4517
H802       H    0.4911204688    1.2611931272    0.4506276616          0.5079
H803       H    0.4294030901    1.2287011871    0.4888085613         -0.4634
C804       C    0.5054690637    1.3348019033    0.4815611158         -0.4515
N805       N    0.5000000000    1.3676227821    0.5000000000         -0.4292
N806       N    0.4818653132    1.3545950792    0.5178958905         -0.4154
N807       N    0.4655761003    1.3377772415    0.4918648127         -0.4418
H808       H    0.5194583750    1.3150521210    0.4968835448         -0.4411
H809       H    0.5224540204    1.3399607702    0.4594639306          0.5295
H810       H    0.4509786714    1.3449745264    0.4650790313         -0.4647
H811       H    0.3998447507    1.1356017888    0.4786048973          0.5113
H812       H    0.4023960864    1.1737943471    0.4536685038          0.4954
H813       H    0.3991673710    1.1762201203    0.4991742831         -0.4632
H814       H    0.5190212285    1.1827588392    0.5253150688         -0.4382
C755       C    0.5000000000    0.6323772179    0.0000000000          0.5302
C756       C    0.4989380889    0.6324756042   -0.0348794463          0.5226
C757       C    0.5046520000    0.6616155845   -0.0535755942          0.5181
C758       C    0.5145483128    0.6910052048   -0.0377231439          0.5184
C759       C    0.5187997544    0.6897440350   -0.0038018344          0.5228
C760       C    0.5100199937    0.6619587931    0.0140222634            0.53
C761       C    0.5156400251    0.7264242630   -0.0559120618          0.5192
C762       C    0.4973293662    0.6616085407   -0.0920731826           0.515
H763       H    0.4897886933    0.6097168932   -0.0485831564          0.5233
O764       O    0.4962206742    0.6714845468    0.0424348276         -0.4494
H765       H    0.5243011936    0.7131422212    0.0107671339          0.5257
C766       C    0.5187089046    0.7590228431   -0.0320226469           0.528
N767       N    0.5085591491    0.7907047362   -0.0508974356         -0.4624
N768       N    0.5213909326    0.7818051812   -0.0748462562          0.5191
N769       N    0.5117196927    0.7484356783   -0.0736086532           0.522
C770       C    0.5236150396    0.8237215440   -0.0379198654         -0.4666
H771       H    0.5011570838    0.7569199215   -0.0098884156         -0.4517
H772       H    0.5451606303    0.7611931272   -0.0218401316          0.5079
H773       H    0.4917777598    0.7287011871   -0.0710039912         -0.4634
C774       C    0.5192304539    0.8348019033    0.0003045455         -0.4515
N775       N    0.5000000000    0.8676227821    0.0000000000         -0.4292
N776       N    0.4778836303    0.8545950792   -0.0126489507         -0.4154
N777       N    0.4985700226    0.8377772415   -0.0353431932         -0.4418
H778       H    0.5082385575    0.8150521210    0.0179015871         -0.4411
H779       H    0.5450836480    0.8399607702    0.0107154390          0.5295
H780       H    0.5204386030    0.8449745264   -0.0566112023         -0.4647
H781       H    0.4936494674    0.6356017888   -0.1022178806          0.5113
H782       H    0.5183523846    0.6737943471   -0.1064721629          0.4954
H783       H    0.4736567790    0.6762201203   -0.0973341440         -0.4632
H784       H    0.4807385008    0.6827588392    0.0251327374         -0.4382
C725       C    0.5000000000    1.1323772179    0.0000000000          0.5302
C726       C    0.5182878915    1.1324756042    0.0297196308          0.5226
C727       C    0.5226417167    1.1616155845    0.0487784590          0.5181
C728       C    0.5061662131    1.1910052048    0.0399583134          0.5184
C729       C    0.4855893470    1.1897440350    0.0126577167          0.5228
C730       C    0.4843285132    1.1619587931   -0.0071713770            0.53
C731       C    0.5142759734    1.2264242630    0.0562757996          0.5192
C732       C    0.5481605959    1.1616085407    0.0785185344           0.515
H733       H    0.5330457604    1.1097168932    0.0370482332          0.5233
O734       O    0.4821486241    1.1714845468   -0.0386823768         -0.4494
H735       H    0.4735642573    1.2131422212    0.0027623701          0.5257
C736       C    0.4997196798    1.2590228431    0.0370863107           0.528
N737       N    0.5179198410    1.2907047362    0.0484013148         -0.4624
N738       N    0.5187162412    1.2818051812    0.0755594890          0.5191
N739       N    0.5264871741    1.2484356783    0.0696707588           0.522
C740       C    0.4984012601    1.3237215440    0.0446433682         -0.4666
H741       H    0.5039201298    1.2569199215    0.0091516221         -0.4517
H742       H    0.4717100292    1.2611931272    0.0414264580          0.5079
H743       H    0.5424844434    1.2287011871    0.0574825544         -0.4634
C744       C    0.4831712079    1.3348019033    0.0093110077         -0.4515
N745       N    0.5000000000    1.3676227821    0.0000000000         -0.4292
N746       N    0.5254779895    1.3545950792   -0.0000425541         -0.4154
N747       N    0.5188379944    1.3377772415    0.0299385388         -0.4418
H748       H    0.4839418508    1.3150521210   -0.0114226309         -0.4411
H749       H    0.4555669068    1.3399607702    0.0131550820          0.5295
H750       H    0.5104626328    1.3449745264    0.0592713930         -0.4647
H751       H    0.5564030907    1.1356017888    0.0854840086          0.5113
H752       H    0.5370983403    1.1737943471    0.1014733691          0.4954
H753       H    0.5713095928    1.1762201203    0.0712940591         -0.4632
H754       H    0.5041901290    1.1827588392   -0.0313863451         -0.4382
C695       C    0.5000000000    1.0000000000   -0.1323772179          0.5302
C696       C    0.4986609063    1.0348699048   -0.1324756042          0.5226
C697       C    0.4916748769    1.0531288784   -0.1616155845          0.5181
C698       C    0.4828920863    1.0366334312   -0.1910052048          0.5184
C699       C    0.4809833132    1.0025000666   -0.1897440350          0.5228
C700       C    0.4909679682    0.9853219024   -0.1619587931            0.53
C701       C    0.4805521942    1.0547042219   -0.2264242630          0.5192
C702       C    0.4963328838    1.0920388804   -0.1616085407           0.515
H703       H    0.5068463061    1.0491703362   -0.1097168932          0.5233
O704       O    0.5066884180    0.9579255070   -0.1714845468         -0.4494
H705       H    0.4764967342    0.9875872775   -0.2131422212          0.5257
C706       C    0.4791333389    1.0306603242   -0.2590228431           0.528
N707       N    0.4879611405    1.0501883835   -0.2907047362         -0.4624
N708       N    0.4735128867    1.0731981344   -0.2818051812          0.5191
N709       N    0.4832463375    1.0726285055   -0.2484356783           0.522
C710       C    0.4738332940    1.0362062120   -0.3237215440         -0.4666
H711       H    0.4981656765    1.0097854414   -0.2569199215         -0.4517
H712       H    0.4534444302    1.0186829547   -0.2611931272          0.5079
H713       H    0.5033201753    1.0714013195   -0.2287011871         -0.4634
C714       C    0.4808360091    0.9983737899   -0.3348019033         -0.4515
N715       N    0.5000000000    1.0000000000   -0.3676227821         -0.4292
N716       N    0.5211942102    1.0141398450   -0.3545950792         -0.4154
N717       N    0.4989962117    1.0353578641   -0.3377772415         -0.4418
H718       H    0.4930119499    0.9815742624   -0.3150521210         -0.4411
H719       H    0.4557599197    0.9862097409   -0.3399607702          0.5295
H720       H    0.4757168987    1.0550717323   -0.3449745264         -0.4647
H721       H    0.4993064699    1.1024126134   -0.1356017888          0.5113
H722       H    0.4743694811    1.1049581249   -0.1737943471          0.4954
H723       H    0.5195876641    1.0989152379   -0.1762201203         -0.4632
H724       H    0.5209441618    0.9762512753   -0.1827588392         -0.4382
C665       C    0.5000000000    1.0000000000    0.3676227821          0.5302
C666       C    0.5338782023    1.0083648573    0.3675243958          0.5226
C667       C    0.5503465995    1.0188998761    0.3383844155          0.5181
C668       C    0.5324155737    1.0241644278    0.3089947952          0.5184
C669       C    0.4986017109    1.0191292838    0.3102559650          0.5228
C670       C    0.4837983394    1.0058762520    0.3380412069            0.53
C671       C    0.5496394935    1.0301112890    0.2735757370          0.5192
C672       C    0.5893944688    1.0222088315    0.3383914593           0.515
H673       H    0.5495387482    1.0032413418    0.3902831068          0.5233
O674       O    0.4601481983    0.9849390638    0.3285154532         -0.4494
H675       H    0.4830896594    1.0205065737    0.2868577788          0.5257
C676       C    0.5258056278    1.0266372408    0.2409771569           0.528
N677       N    0.5467156802    1.0219420419    0.2092952638         -0.4624
N678       N    0.5663271959    1.0407460076    0.2181948188          0.5191
N679       N    0.5677382140    1.0310985432    0.2515643217           0.522
C680       C    0.5301647837    1.0329495389    0.1762784560         -0.4666
H681       H    0.5092121114    1.0037757924    0.2430800785         -0.4517
H682       H    0.5088795312    1.0493723384    0.2388068728          0.5079
H683       H    0.5705969099    1.0111914387    0.2712988129         -0.4634
C684       C    0.4945309363    1.0184388842    0.1651980967         -0.4515
N685       N    0.5000000000    1.0000000000    0.1323772179         -0.4292
N686       N    0.5181346868    0.9821041095    0.1454049208         -0.4154
N687       N    0.5344238997    1.0081351873    0.1622227585         -0.4418
H688       H    0.4805416250    1.0031164552    0.1849478790         -0.4411
H689       H    0.4775459796    1.0405360694    0.1600392298          0.5295
H690       H    0.5490213286    1.0349209687    0.1550254736         -0.4647
H691       H    0.6001552493    1.0213951027    0.3643982112          0.5113
H692       H    0.5976039136    1.0463314962    0.3262056529          0.4954
H693       H    0.6008326290    1.0008257169    0.3237798797         -0.4632
H694       H    0.4809787715    0.9746849312    0.3172411608         -0.4382
C635       C    0.6323772179    0.5000000000    0.5000000000          0.5302
C636       C    0.6324756042    0.4878915450    0.5327274922          0.5226
C637       C    0.6616155845    0.4873575033    0.5522699978          0.5181
C638       C    0.6910052048    0.5017848157    0.5403918732          0.5184
C639       C    0.6897440350    0.5166119597    0.5095878833          0.5228
C640       C    0.6619587931    0.5139620314    0.4898962470            0.53
C641       C    0.7264242630    0.4970304058    0.5579823296          0.5192
C642       C    0.6616085407    0.4681623064    0.5864347413           0.515
H643       H    0.6097168932    0.4748562272    0.5428063612          0.5233
O644       O    0.6714845468    0.5099237944    0.4585691395         -0.4494
H645       H    0.7131422212    0.5264644414    0.4975276481          0.5257
C646       C    0.7590228431    0.5075434393    0.5363121130           0.528
N647       N    0.7907047362    0.4919138856    0.5509747264         -0.4624
N648       N    0.7818051812    0.4964556685    0.5777622773          0.5191
N649       N    0.7484356783    0.4876813125    0.5735107812           0.522
C650       C    0.8237215440    0.5103173991    0.5434642102         -0.4666
H651       H    0.7569199215    0.4979495266    0.5097424414         -0.4517
H652       H    0.7611931272    0.5358604930    0.5350784680          0.5079
H653       H    0.7287011871    0.4696055275    0.5646942658         -0.4634
C654       C    0.8348019033    0.5183272786    0.5058321492         -0.4515
N655       N    0.8676227821    0.5000000000    0.5000000000         -0.4292
N656       N    0.8545950792    0.4750077944    0.5049517091         -0.4154
N657       N    0.8377772415    0.4873950147    0.5330499696         -0.4418
H658       H    0.8150521210    0.5135079905    0.4856516606         -0.4411
H659       H    0.8399607702    0.5461496187    0.5041914967          0.5295
H660       H    0.8449745264    0.5013568970    0.5601724484         -0.4647
H661       H    0.6356017888    0.4614448330    0.5948805748          0.5113
H662       H    0.6737943471    0.4835089430    0.6067762920          0.4954
H663       H    0.6762201203    0.4440463380    0.5838873566         -0.4632
H664       H    0.6827588392    0.4897397171    0.4700435911         -0.4382
C605       C    1.1323772179    0.5000000000    0.5000000000          0.5302
C606       C    1.1324756042    0.4878915450    0.5327274922          0.5226
C607       C    1.1616155845    0.4873575033    0.5522699978          0.5181
C608       C    1.1910052048    0.5017848157    0.5403918732          0.5184
C609       C    1.1897440350    0.5166119597    0.5095878833          0.5228
C610       C    1.1619587931    0.5139620314    0.4898962470            0.53
C611       C    1.2264242630    0.4970304058    0.5579823296          0.5192
C612       C    1.1616085407    0.4681623064    0.5864347413           0.515
H613       H    1.1097168932    0.4748562272    0.5428063612          0.5233
O614       O    1.1714845468    0.5099237944    0.4585691395         -0.4494
H615       H    1.2131422212    0.5264644414    0.4975276481          0.5257
C616       C    1.2590228431    0.5075434393    0.5363121130           0.528
N617       N    1.2907047362    0.4919138856    0.5509747264         -0.4624
N618       N    1.2818051812    0.4964556685    0.5777622773          0.5191
N619       N    1.2484356783    0.4876813125    0.5735107812           0.522
C620       C    1.3237215440    0.5103173991    0.5434642102         -0.4666
H621       H    1.2569199215    0.4979495266    0.5097424414         -0.4517
H622       H    1.2611931272    0.5358604930    0.5350784680          0.5079
H623       H    1.2287011871    0.4696055275    0.5646942658         -0.4634
C624       C    1.3348019033    0.5183272786    0.5058321492         -0.4515
N625       N    1.3676227821    0.5000000000    0.5000000000         -0.4292
N626       N    1.3545950792    0.4750077944    0.5049517091         -0.4154
N627       N    1.3377772415    0.4873950147    0.5330499696         -0.4418
H628       H    1.3150521210    0.5135079905    0.4856516606         -0.4411
H629       H    1.3399607702    0.5461496187    0.5041914967          0.5295
H630       H    1.3449745264    0.5013568970    0.5601724484         -0.4647
H631       H    1.1356017888    0.4614448330    0.5948805748          0.5113
H632       H    1.1737943471    0.4835089430    0.6067762920          0.4954
H633       H    1.1762201203    0.4440463380    0.5838873566         -0.4632
H634       H    1.1827588392    0.4897397171    0.4700435911         -0.4382
C575       C    0.6323772179    0.5000000000    0.0000000000          0.5302
C576       C    0.6324756042    0.4782072833    0.0272540075          0.5226
C577       C    0.6616155845    0.4715502573    0.0456354855          0.5181
C578       C    0.6910052048    0.4889826146    0.0389012366          0.5184
C579       C    0.6897440350    0.5127505473    0.0143285817          0.5228
C580       C    0.6619587931    0.5164323142   -0.0051964600            0.53
C581       C    0.7264242630    0.4789339780    0.0541016798          0.5192
C582       C    0.6616085407    0.4425785690    0.0720234858           0.515
H583       H    0.6097168932    0.4626624272    0.0327184890          0.5233
O584       O    0.6714845468    0.5224580508   -0.0362026774         -0.4494
H585       H    0.7131422212    0.5258978338    0.0059817544          0.5257
C586       C    0.7590228431    0.4957325602    0.0368410367           0.528
N587       N    0.7907047362    0.4762827561    0.0458399424         -0.4624
N588       N    0.7818051812    0.4721636001    0.0726957282          0.5191
N589       N    0.7484356783    0.4651730384    0.0658989208           0.522
C590       C    0.8237215440    0.4961147751    0.0445027114         -0.4666
H591       H    0.7569199215    0.4949877195    0.0086021305         -0.4517
H592       H    0.7611931272    0.5229990474    0.0445815847          0.5079
H593       H    0.7287011871    0.4507902901    0.0518418407         -0.4634
C594       C    0.8348019033    0.5155606576    0.0113034970         -0.4515
N595       N    0.8676227821    0.5000000000    0.0000000000         -0.4292
N596       N    0.8545950792    0.4747193317   -0.0031650548         -0.4154
N597       N    0.8377772415    0.4776344967    0.0274038393         -0.4418
H598       H    0.8150521210    0.5173371347   -0.0093682662         -0.4411
H599       H    0.8399607702    0.5424856550    0.0185020289          0.5295
H600       H    0.8449745264    0.4823513978    0.0575420850         -0.4647
H601       H    0.6356017888    0.4335444692    0.0779261624          0.5113
H602       H    0.6737943471    0.4507438547    0.0961611337          0.4954
H603       H    0.6762201203    0.4204896163    0.0620161250         -0.4632
H604       H    0.6827588392    0.4996884699   -0.0316632719         -0.4382
C545       C    1.1323772179    0.5000000000    0.0000000000          0.5302
C546       C    1.1324756042    0.4905791192    0.0335998577          0.5226
C547       C    1.1616155845    0.4916279510    0.0531215040          0.5181
C548       C    1.1910052048    0.5050469442    0.0401150514          0.5184
C549       C    1.1897440350    0.5173332257    0.0082124295          0.5228
C550       C    1.1619587931    0.5130987963   -0.0112002537            0.53
C551       C    1.2264242630    0.5017313094    0.0580325048          0.5192
C552       C    1.1616085407    0.4752598446    0.0887272672           0.515
H553       H    1.1097168932    0.4784019852    0.0447003314          0.5233
O554       O    1.1714845468    0.5065392200   -0.0420979394         -0.4494
H555       H    1.2131422212    0.5261776519   -0.0046054016          0.5257
C556       C    1.2590228431    0.5104566085    0.0355827537           0.528
N557       N    1.2907047362    0.4960645997    0.0514618364         -0.4624
N558       N    1.2818051812    0.5027587898    0.0777941073          0.5191
N559       N    1.2484356783    0.4936692239    0.0742664547           0.522
C560       C    1.3237215440    0.5138001281    0.0424869716         -0.4666
H561       H    1.2569199215    0.4987444791    0.0098763998         -0.4517
H562       H    1.2611931272    0.5385810191    0.0320621091          0.5079
H563       H    1.2287011871    0.4749393807    0.0669412978         -0.4634
C564       C    1.3348019033    0.5187390566    0.0043302269         -0.4515
N565       N    1.3676227821    0.5000000000    0.0000000000         -0.4292
N566       N    1.3545950792    0.4754903545    0.0069575166         -0.4154
N567       N    1.3377772415    0.4901103073    0.0339614505         -0.4418
H568       H    1.3150521210    0.5123028277   -0.0153941899         -0.4411
H569       H    1.3399607702    0.5463374457    0.0004439347          0.5295
H570       H    1.3449745264    0.5062208125    0.0598654007         -0.4647
H571       H    1.1356017888    0.4692477192    0.0976889021          0.5113
H572       H    1.1737943471    0.4922019408    0.1077604833          0.4954
H573       H    1.1762201203    0.4510168355    0.0881393810         -0.4632
H574       H    1.1827588392    0.4873496747   -0.0290280745         -0.4382
C515       C    1.0000000000    0.5000000000   -0.1323772179          0.5302
C516       C    1.0338782023    0.5083648573   -0.1324756042          0.5226
C517       C    1.0503465995    0.5188998761   -0.1616155845          0.5181
C518       C    1.0324155737    0.5241644278   -0.1910052048          0.5184
C519       C    0.9986017109    0.5191292838   -0.1897440350          0.5228
C520       C    0.9837983394    0.5058762520   -0.1619587931            0.53
C521       C    1.0496394935    0.5301112890   -0.2264242630          0.5192
C522       C    1.0893944688    0.5222088315   -0.1616085407           0.515
H523       H    1.0495387482    0.5032413418   -0.1097168932          0.5233
O524       O    0.9601481983    0.4849390638   -0.1714845468         -0.4494
H525       H    0.9830896594    0.5205065737   -0.2131422212          0.5257
C526       C    1.0258056278    0.5266372408   -0.2590228431           0.528
N527       N    1.0467156802    0.5219420419   -0.2907047362         -0.4624
N528       N    1.0663271959    0.5407460076   -0.2818051812          0.5191
N529       N    1.0677382140    0.5310985432   -0.2484356783           0.522
C530       C    1.0301647837    0.5329495389   -0.3237215440         -0.4666
H531       H    1.0092121114    0.5037757924   -0.2569199215         -0.4517
H532       H    1.0088795312    0.5493723384   -0.2611931272          0.5079
H533       H    1.0705969099    0.5111914387   -0.2287011871         -0.4634
C534       C    0.9945309363    0.5184388842   -0.3348019033         -0.4515
N535       N    1.0000000000    0.5000000000   -0.3676227821         -0.4292
N536       N    1.0181346868    0.4821041095   -0.3545950792         -0.4154
N537       N    1.0344238997    0.5081351873   -0.3377772415         -0.4418
H538       H    0.9805416250    0.5031164552   -0.3150521210         -0.4411
H539       H    0.9775459796    0.5405360694   -0.3399607702          0.5295
H540       H    1.0490213286    0.5349209687   -0.3449745264         -0.4647
H541       H    1.1001552493    0.5213951027   -0.1356017888          0.5113
H542       H    1.0976039136    0.5463314962   -0.1737943471          0.4954
H543       H    1.1008326290    0.5008257169   -0.1762201203         -0.4632
H544       H    0.9809787715    0.4746849312   -0.1827588392         -0.4382
C485       C    1.0000000000    0.5000000000    0.1323772179          0.5302
C486       C    0.9661217977    0.5083648573    0.1324756042          0.5226
C487       C    0.9496534005    0.5188998761    0.1616155845          0.5181
C488       C    0.9675844263    0.5241644278    0.1910052048          0.5184
C489       C    1.0013982891    0.5191292838    0.1897440350          0.5228
C490       C    1.0162016606    0.5058762520    0.1619587931            0.53
C491       C    0.9503605065    0.5301112890    0.2264242630          0.5192
C492       C    0.9106055312    0.5222088315    0.1616085407           0.515
H493       H    0.9504612518    0.5032413418    0.1097168932          0.5233
O494       O    1.0398518017    0.4849390638    0.1714845468         -0.4494
H495       H    1.0169103406    0.5205065737    0.2131422212          0.5257
C496       C    0.9741943722    0.5266372408    0.2590228431           0.528
N497       N    0.9532843198    0.5219420419    0.2907047362         -0.4624
N498       N    0.9336728041    0.5407460076    0.2818051812          0.5191
N499       N    0.9322617860    0.5310985432    0.2484356783           0.522
C500       C    0.9698352163    0.5329495389    0.3237215440         -0.4666
H501       H    0.9907878886    0.5037757924    0.2569199215         -0.4517
H502       H    0.9911204688    0.5493723384    0.2611931272          0.5079
H503       H    0.9294030901    0.5111914387    0.2287011871         -0.4634
C504       C    1.0054690637    0.5184388842    0.3348019033         -0.4515
N505       N    1.0000000000    0.5000000000    0.3676227821         -0.4292
N506       N    0.9818653132    0.4821041095    0.3545950792         -0.4154
N507       N    0.9655761003    0.5081351873    0.3377772415         -0.4418
H508       H    1.0194583750    0.5031164552    0.3150521210         -0.4411
H509       H    1.0224540204    0.5405360694    0.3399607702          0.5295
H510       H    0.9509786714    0.5349209687    0.3449745264         -0.4647
H511       H    0.8998447507    0.5213951027    0.1356017888          0.5113
H512       H    0.9023960864    0.5463314962    0.1737943471          0.4954
H513       H    0.8991673710    0.5008257169    0.1762201203         -0.4632
H514       H    1.0190212285    0.4746849312    0.1827588392         -0.4382
C455       C    1.0000000000   -0.3676227821    0.5000000000          0.5302
C456       C    0.9661217977   -0.3675243958    0.4916351427          0.5226
C457       C    0.9496534005   -0.3383844155    0.4811001239          0.5181
C458       C    0.9675844263   -0.3089947952    0.4758355722          0.5184
C459       C    1.0013982891   -0.3102559650    0.4808707162          0.5228
C460       C    1.0162016606   -0.3380412069    0.4941237480            0.53
C461       C    0.9503605065   -0.2735757370    0.4698887110          0.5192
C462       C    0.9106055312   -0.3383914593    0.4777911685           0.515
H463       H    0.9504612518   -0.3902831068    0.4967586582          0.5233
O464       O    1.0398518017   -0.3285154532    0.5150609362         -0.4494
H465       H    1.0169103406   -0.2868577788    0.4794934263          0.5257
C466       C    0.9741943722   -0.2409771569    0.4733627592           0.528
N467       N    0.9532843198   -0.2092952638    0.4780579581         -0.4624
N468       N    0.9336728041   -0.2181948188    0.4592539924          0.5191
N469       N    0.9322617860   -0.2515643217    0.4689014568           0.522
C470       C    0.9698352163   -0.1762784560    0.4670504611         -0.4666
H471       H    0.9907878886   -0.2430800785    0.4962242076         -0.4517
H472       H    0.9911204688   -0.2388068728    0.4506276616          0.5079
H473       H    0.9294030901   -0.2712988129    0.4888085613         -0.4634
C474       C    1.0054690637   -0.1651980967    0.4815611158         -0.4515
N475       N    1.0000000000   -0.1323772179    0.5000000000         -0.4292
N476       N    0.9818653132   -0.1454049208    0.5178958905         -0.4154
N477       N    0.9655761003   -0.1622227585    0.4918648127         -0.4418
H478       H    1.0194583750   -0.1849478790    0.4968835448         -0.4411
H479       H    1.0224540204   -0.1600392298    0.4594639306          0.5295
H480       H    0.9509786714   -0.1550254736    0.4650790313         -0.4647
H481       H    0.8998447507   -0.3643982112    0.4786048973          0.5113
H482       H    0.9023960864   -0.3262056529    0.4536685038          0.4954
H483       H    0.8991673710   -0.3237798797    0.4991742831         -0.4632
H484       H    1.0190212285   -0.3172411608    0.5253150688         -0.4382
C425       C    1.0000000000    0.3676227821    0.5000000000          0.5302
C426       C    0.9655630902    0.3675243958    0.5056393860          0.5226
C427       C    0.9483077682    0.3383844155    0.5148289772          0.5181
C428       C    0.9657624073    0.3089947952    0.5215052607          0.5184
C429       C    0.9998699226    0.3102559650    0.5191798798          0.5228
C430       C    1.0156820397    0.3380412069    0.5071482709            0.53
C431       C    0.9481194766    0.2735757370    0.5260610885          0.5192
C432       C    0.9091203972    0.3383914593    0.5150166920           0.515
H433       H    0.9503604792    0.3902831068    0.4992845667          0.5233
O434       O    1.0409249625    0.3285154532    0.4881617000         -0.4494
H435       H    1.0152229518    0.2868577788    0.5217885502          0.5257
C436       C    0.9721543501    0.2409771569    0.5244967917           0.528
N437       N    0.9516847952    0.2092952638    0.5181507292         -0.4624
N438       N    0.9306376038    0.2181948188    0.5353325919          0.5191
N439       N    0.9299996296    0.2515643217    0.5256033818           0.522
C440       C    0.9673061834    0.1762784560    0.5304417583         -0.4666
H441       H    0.9905163709    0.2430800785    0.5030299149         -0.4517
H442       H    0.9872154739    0.2388068728    0.5485080382          0.5079
H443       H    0.9287359062    0.2712988129    0.5055318110         -0.4634
C444       C    1.0039827595    0.1651980967    0.5188159702         -0.4515
N445       N    1.0000000000    0.1323772179    0.5000000000         -0.4292
N446       N    0.9833486148    0.1454049208    0.4807162988         -0.4154
N447       N    0.9650374237    0.1622227585    0.5053669732         -0.4418
H448       H    1.0191482609    0.1849478790    0.5046566895         -0.4411
H449       H    1.0191533753    0.1600392298    0.5421960207          0.5295
H450       H    0.9483525167    0.1550254736    0.5309047275         -0.4647
H451       H    0.8984586424    0.3643982112    0.5133482985          0.5113
H452       H    0.8990153272    0.3262056529    0.5384086884          0.4954
H453       H    0.8994220628    0.3237798797    0.4927903245         -0.4632
H454       H    1.0209774832    0.3172411608    0.4762807032         -0.4382
C395       C    0.8676227821   -0.0000000000    0.5000000000          0.5302
C396       C    0.8675243958    0.0265323292    0.4773341902          0.5226
C397       C    0.8383844155    0.0446880577    0.4700840696          0.5181
C398       C    0.8089947952    0.0385231534    0.4877258139          0.5184
C399       C    0.8102559650    0.0147348731    0.5122787713          0.5228
C400       C    0.8380412069   -0.0046603837    0.5165923166            0.53
C401       C    0.7735757370    0.0533894427    0.4771891155          0.5192
C402       C    0.8383914593    0.0701218304    0.4402711783           0.515
H403       H    0.8902831068    0.0314893972    0.4616201650          0.5233
O404       O    0.8285154532   -0.0354546899    0.5236212375         -0.4494
H405       H    0.7868577788    0.0068191607    0.5256900414          0.5257
C406       C    0.7409771569    0.0366831197    0.4945390706           0.528
N407       N    0.7092952638    0.0450460082    0.4748074391         -0.4624
N408       N    0.7181948188    0.0717539506    0.4698188035          0.5191
N409       N    0.7515643217    0.0647338338    0.4630525267           0.522
C410       C    0.6762784560    0.0443531633    0.4946724116         -0.4666
H411       H    0.7430800785    0.0084349164    0.4947111636         -0.4517
H412       H    0.7388068728    0.0453045694    0.5215399597          0.5079
H413       H    0.7712988129    0.0502173434    0.4491336023         -0.4634
C414       C    0.6651980967    0.0118025890    0.5151855853         -0.4515
N415       N    0.6323772179   -0.0000000000    0.5000000000         -0.4292
N416       N    0.6454049208   -0.0039839139    0.4748353782         -0.4154
N417       N    0.6622227585    0.0266634912    0.4767568424         -0.4418
H418       H    0.6849478790   -0.0088006245    0.5176320634         -0.4411
H419       H    0.6600392298    0.0198712245    0.5418627566          0.5295
H420       H    0.6550254736    0.0569389535    0.4804930707         -0.4647
H421       H    0.8643982112    0.0757281802    0.4310502568          0.5113
H422       H    0.8262056529    0.0945117793    0.4476487339          0.4954
H423       H    0.8237798797    0.0594028079    0.4185186691         -0.4632
H424       H    0.8172411608   -0.0316567012    0.5007163189         -0.4382
C365       C    1.3676227821   -0.0000000000    0.5000000000          0.5302
C366       C    1.3675243958    0.0132967693    0.5322629719          0.5226
C367       C    1.3383844155    0.0145448628    0.5517728921          0.5181
C368       C    1.3089947952   -0.0003070307    0.5404301215          0.5184
C369       C    1.3102559650   -0.0162503550    0.5101887523          0.5228
C370       C    1.3380412069   -0.0143220584    0.4904134058            0.53
C371       C    1.2735757370    0.0050872496    0.5578350148          0.5192
C372       C    1.3383914593    0.0349761782    0.5852130870           0.515
H373       H    1.3902831068    0.0266918238    0.5418585763          0.5233
O374       O    1.3285154532   -0.0114317350    0.4589596134         -0.4494
H375       H    1.2868577788   -0.0265371330    0.4984967523          0.5257
C376       C    1.2409771569   -0.0062109476    0.5365636042           0.528
N377       N    1.2092952638    0.0099441753    0.5506450527         -0.4624
N378       N    1.2181948188    0.0063846915    0.5775807307          0.5191
N379       N    1.2515643217    0.0149977620    0.5730113152           0.522
C380       C    1.1762784560   -0.0087215964    0.5438123276         -0.4666
H381       H    1.2430800785    0.0024052539    0.5096609709         -0.4517
H382       H    1.2388068728   -0.0345541716    0.5363659607          0.5079
H383       H    1.2712988129    0.0327391626    0.5635399026         -0.4634
C384       C    1.1651980967   -0.0181018245    0.5064982350         -0.4515
N385       N    1.1323772179   -0.0000000000    0.5000000000         -0.4292
N386       N    1.1454049208    0.0251565183    0.5040347677         -0.4154
N387       N    1.1622227585    0.0138047564    0.5325670822         -0.4418
H388       H    1.1849478790   -0.0140234889    0.4861550583         -0.4411
H389       H    1.1600392298   -0.0459655443    0.5058757709          0.5295
H390       H    1.1550254736    0.0008437137    0.5601818316         -0.4647
H391       H    1.3643982112    0.0419979129    0.5934077067          0.5113
H392       H    1.3262056529    0.0203834187    0.6061020628          0.4954
H393       H    1.3237798797    0.0589829031    0.5817858057         -0.4632
H394       H    1.3172411608    0.0091583185    0.4696885328         -0.4382
C335       C   -0.0000000000   -0.3676227821    0.0000000000          0.5302
C336       C    0.0224461808   -0.3675243958   -0.0267183907          0.5226
C337       C    0.0391633815   -0.3383844155   -0.0368539678          0.5181
C338       C    0.0359818920   -0.3089947952   -0.0184388840          0.5184
C339       C    0.0165526121   -0.3102559650    0.0096899816          0.5228
C340       C   -0.0018699122   -0.3380412069    0.0171326464            0.53
C341       C    0.0489142099   -0.2735757370   -0.0312756953          0.5192
C342       C    0.0593512596   -0.3383914593   -0.0704416867           0.515
H343       H    0.0247530974   -0.3902831068   -0.0430334526          0.5233
O344       O   -0.0310901699   -0.3285154532    0.0291272936         -0.4494
H345       H    0.0109488087   -0.2868577788    0.0242198837          0.5257
C346       C    0.0352867003   -0.2409771569   -0.0114158577           0.528
N347       N    0.0402927914   -0.2092952638   -0.0322536655         -0.4624
N348       N    0.0658175963   -0.2181948188   -0.0415641441          0.5191
N349       N    0.0577808515   -0.2515643217   -0.0470845857           0.522
C350       C    0.0428743518   -0.1762784560   -0.0125449692         -0.4666
H351       H    0.0074509400   -0.2430800785   -0.0066032643         -0.4517
H352       H    0.0482287373   -0.2388068728    0.0138008250          0.5079
H353       H    0.0411740787   -0.2712988129   -0.0584283085         -0.4634
C354       C    0.0141379657   -0.1651980967    0.0130392114         -0.4515
N355       N   -0.0000000000   -0.1323772179   -0.0000000000         -0.4292
N356       N   -0.0080657622   -0.1454049208   -0.0241676073         -0.4154
N357       N    0.0224806669   -0.1622227585   -0.0273094445         -0.4418
H358       H   -0.0057829567   -0.1849478790    0.0188387384         -0.4411
H359       H    0.0264815006   -0.1600392298    0.0380274385          0.5295
H360       H    0.0529584836   -0.1550254736   -0.0286000652         -0.4647
H361       H    0.0633658271   -0.3643982112   -0.0804586623          0.5113
H362       H    0.0846220866   -0.3262056529   -0.0671731639          0.4954
H363       H    0.0452027929   -0.3237798797   -0.0901366096         -0.4632
H364       H   -0.0311084564   -0.3172411608    0.0059096348         -0.4382
C305       C   -0.0000000000    0.3676227821    0.0000000000          0.5302
C306       C    0.0335079481    0.3675243958   -0.0097427328          0.5226
C307       C    0.0495319315    0.3383844155   -0.0209421382          0.5181
C308       C    0.0314006900    0.3089947952   -0.0254693082          0.5184
C309       C   -0.0021790839    0.3102559650   -0.0190561356          0.5228
C310       C   -0.0164283269    0.3380412069   -0.0052090517            0.53
C311       C    0.0483671185    0.2735757370   -0.0321152751          0.5192
C312       C    0.0884118999    0.3383914593   -0.0258445198           0.515
H313       H    0.0493648423    0.3902831068   -0.0052636688          0.5233
O314       O   -0.0392028333    0.3285154532    0.0166774026         -0.4494
H315       H   -0.0177344702    0.2868577788   -0.0197981753          0.5257
C316       C    0.0246951857    0.2409771569   -0.0276698541           0.528
N317       N    0.0457796901    0.2092952638   -0.0238333371         -0.4624
N318       N    0.0646061483    0.2181948188   -0.0434232617          0.5191
N319       N    0.0664103543    0.2515643217   -0.0338415404           0.522
C320       C    0.0287926650    0.1762784560   -0.0341550689         -0.4666
H321       H    0.0090500653    0.2430800785   -0.0041492075         -0.4517
H322       H    0.0068538754    0.2388068728   -0.0496940466          0.5079
H323       H    0.0700804200    0.2712988129   -0.0140679325         -0.4634
C324       C   -0.0062182339    0.1651980967   -0.0181999086         -0.4515
N325       N    0.0000000000    0.1323772179    0.0000000000         -0.4292
N326       N    0.0188510740    0.1454049208    0.0171396257         -0.4154
N327       N    0.0340625778    0.1622227585   -0.0095355617         -0.4418
H328       H   -0.0195695047    0.1849478790   -0.0023184342         -0.4411
H329       H   -0.0240922786    0.1600392298   -0.0395843159          0.5295
H330       H    0.0475528610    0.1550254736   -0.0368956653         -0.4647
H331       H    0.0991969495    0.3643982112   -0.0254713484          0.5113
H332       H    0.0956284008    0.3262056529   -0.0502826058          0.4954
H333       H    0.1007145948    0.3237798797   -0.0049468453         -0.4632
H334       H   -0.0179705047    0.3172411608    0.0260714557         -0.4382
C275       C   -0.3676227821   -0.0000000000    0.0000000000          0.5302
C276       C   -0.3675243958    0.0307902987   -0.0164213560          0.5226
C277       C   -0.3383844155    0.0441704925   -0.0306749569          0.5149
C278       C   -0.3089947952    0.0254958750   -0.0313791228          0.5184
C279       C   -0.3102559650   -0.0060490125   -0.0182014878          0.5228
C280       C   -0.3380412069   -0.0171481971   -0.0017214768            0.53
C281       C   -0.2735757370    0.0407342248   -0.0413701821          0.5192
C282       C   -0.3383914593    0.0812129292   -0.0434633566           0.515
H283       H   -0.3902831068    0.0472292335   -0.0152968418          0.5233
O284       O   -0.3285154532   -0.0349383889    0.0243784102         -0.4494
H285       H   -0.2868577788   -0.0214248368   -0.0157307199          0.5257
C286       C   -0.2409771569    0.0184812563   -0.0321545672           0.528
N287       N   -0.2092952638    0.0399041480   -0.0327332698         -0.4624
N288       N   -0.2181948188    0.0543025586   -0.0557742430          0.5191
N289       N   -0.2515643217    0.0580374996   -0.0467678699           0.522
C290       C   -0.1762784560    0.0211584137   -0.0393434597         -0.4666
H291       H   -0.2430800785    0.0080041183   -0.0059206161         -0.4517
H292       H   -0.2388068728   -0.0035056344   -0.0500418265          0.5079
H293       H   -0.2712988129    0.0656931214   -0.0281706549         -0.4634
C294       C   -0.1651980967   -0.0098259641   -0.0165334067         -0.4515
N295       N   -0.1323772179   -0.0000000000    0.0000000000         -0.4292
N296       N   -0.1454049208    0.0219712148    0.0128994372         -0.4154
N297       N   -0.1622227585    0.0313756667   -0.0163325958         -0.4418
H298       H   -0.1849478790   -0.0196282347    0.0017530132         -0.4411
H299       H   -0.1600392298   -0.0317134007   -0.0337878109          0.5295
H300       H   -0.1550254736    0.0389548765   -0.0458811760         -0.4647
H301       H   -0.3643982112    0.0918444407   -0.0453147115          0.5113
H302       H   -0.3262056529    0.0832528233   -0.0688628993          0.4954
H303       H   -0.3237798797    0.0975479158   -0.0255402622         -0.4632
H304       H   -0.3172411608   -0.0122286351    0.0292082236         -0.4382
C245       C    0.1323772179   -0.0000000000    0.0000000000          0.5302
C246       C    0.1324756042   -0.0066984269    0.0342466715          0.5226
C247       C    0.1616155845   -0.0040888092    0.0536215165          0.5181
C248       C    0.1910052048    0.0082449076    0.0395816939          0.5184
C249       C    0.1897440350    0.0179355123    0.0067972132          0.5228
C250       C    0.1619587931    0.0121592697   -0.0122137752            0.53
C251       C    0.2264242630    0.0063755561    0.0577072034          0.5192
C252       C    0.1616085407   -0.0175514038    0.0904242858           0.515
H253       H    0.1097168932   -0.0179469924    0.0462871400          0.5233
O254       O    0.1714845468    0.0031451282   -0.0424865398         -0.4494
H255       H    0.2131422212    0.0257244831   -0.0066880604          0.5257
C256       C    0.2590228431    0.0132740320    0.0346305226           0.528
N257       N    0.2907047362    0.0002005954    0.0516117016         -0.4624
N258       N    0.2818051812    0.0089831174    0.0773229439          0.5191
N259       N    0.2484356783   -0.0003598752    0.0745349281           0.522
C260       C    0.3237215440    0.0171599973    0.0412446455         -0.4666
H261       H    0.2569199215   -0.0004601448    0.0099452437         -0.4517
H262       H    0.2611931272    0.0410259302    0.0288677489          0.5079
H263       H    0.2287011871   -0.0196164227    0.0687340378         -0.4634
C264       C    0.3348019033    0.0190257646    0.0028148512         -0.4515
N265       N    0.3676227821   -0.0000000000    0.0000000000         -0.4292
N266       N    0.3545950792   -0.0238733781    0.0088989652         -0.4154
N267       N    0.3377772415   -0.0071367591    0.0346446650         -0.4418
H268       H    0.3150521210    0.0110298241   -0.0163304510         -0.4411
H269       H    0.3399607702    0.0462240352   -0.0032702474          0.5295
H270       H    0.3449745264    0.0109974845    0.0591744881         -0.4647
H271       H    0.1356017888   -0.0228261549    0.0998388252          0.5113
H272       H    0.1737943471    0.0008612444    0.1080388344          0.4954
H273       H    0.1762201203   -0.0417635727    0.0917807435         -0.4632
H274       H    0.1827588392   -0.0149355068   -0.0279211475         -0.4382
C215       C    0.0000000000    0.0000000000   -0.3676227821          0.5302
C216       C    0.0280717651   -0.0207287103   -0.3675243958          0.5226
C217       C    0.0392344606   -0.0367782884   -0.3383844155          0.5181
C218       C    0.0206562700   -0.0347564023   -0.3089947952          0.5184
C219       C   -0.0086342490   -0.0171270095   -0.3102559650          0.5228
C220       C   -0.0172161254    0.0007932042   -0.3380412069            0.53
C221       C    0.0342778450   -0.0468593468   -0.2735757370          0.5192
C222       C    0.0740206276   -0.0548228960   -0.3383914593           0.515
H223       H    0.0444992812   -0.0220092672   -0.3902831068          0.5233
O224       O   -0.0310173215    0.0292048569   -0.3285154532         -0.4494
H225       H   -0.0234865977   -0.0124442319   -0.2868577788          0.5257
C226       C    0.0136034911   -0.0345024355   -0.2409771569           0.528
N227       N    0.0347139261   -0.0381936031   -0.2092952638         -0.4624
N228       N    0.0456047730   -0.0630851705   -0.2181948188          0.5191
N229       N    0.0506110263   -0.0547184525   -0.2515643217           0.522
C230       C    0.0152056090   -0.0420044729   -0.1762784560         -0.4666
H231       H    0.0070569611   -0.0070227420   -0.2430800785         -0.4517
H232       H   -0.0107531105   -0.0489984131   -0.2388068728          0.5079
H233       H    0.0608923776   -0.0374338129   -0.2712988129         -0.4634
C234       C   -0.0121281354   -0.0149268697   -0.1651980967         -0.4515
N235       N   -0.0000000000   -0.0000000000   -0.1323772179         -0.4292
N236       N    0.0236149924    0.0095635714   -0.1454049208         -0.4154
N237       N    0.0286638185   -0.0207261104   -0.1622227585         -0.4418
H238       H   -0.0191639462    0.0045917119   -0.1849478790         -0.4411
H239       H   -0.0362942148   -0.0288112118   -0.1600392298          0.5295
H240       H    0.0318607652   -0.0510632583   -0.1550254736         -0.4647
H241       H    0.0842693742   -0.0582022073   -0.3643982112          0.5113
H242       H    0.0723412621   -0.0802488211   -0.3262056529          0.4954
H243       H    0.0927907500   -0.0394686912   -0.3237798797         -0.4632
H244       H   -0.0078463902    0.0306772555   -0.3172411608         -0.4382
C185       C    0.0000000000    0.0000000000    0.3676227821          0.5302
C186       C    0.0247121136    0.0246376718    0.3675243958          0.5226
C187       C    0.0333888696    0.0421564797    0.3383844155          0.5181
C188       C    0.0153111759    0.0374200065    0.3089947952          0.5184
C189       C   -0.0110629386    0.0156683151    0.3102559650          0.5228
C190       C   -0.0169114768   -0.0033205569    0.3380412069            0.53
C191       C    0.0270013434    0.0513974367    0.2735757370          0.5192
C192       C    0.0651375188    0.0651283878    0.3383914593           0.515
H193       H    0.0407717948    0.0283240996    0.3902831068          0.5233
O194       O   -0.0263769667   -0.0334552467    0.3285154532         -0.4494
H195       H   -0.0250634746    0.0088488091    0.2868577788          0.5257
C196       C    0.0083727443    0.0361299070    0.2409771569           0.528
N197       N    0.0287091669    0.0428904619    0.2092952638         -0.4624
N198       N    0.0358145787    0.0691147597    0.2181948188          0.5191
N199       N    0.0419986718    0.0615767536    0.2515643217           0.522
C200       C    0.0088523044    0.0437861051    0.1762784560         -0.4666
H201       H    0.0059454999    0.0079856519    0.2430800785         -0.4517
H202       H   -0.0178534740    0.0468799247    0.2388068728          0.5079
H203       H    0.0547139644    0.0459951529    0.2712988129         -0.4634
C204       C   -0.0141946215    0.0129775123    0.1651980967         -0.4515
N205       N    0.0000000000    0.0000000000    0.1323772179         -0.4292
N206       N    0.0247661355   -0.0059806600    0.1454049208         -0.4154
N207       N    0.0252980914    0.0247223121    0.1622227585         -0.4418
H208       H   -0.0182785136   -0.0073645497    0.1849478790         -0.4411
H209       H   -0.0401422996    0.0231506314    0.1600392298          0.5295
H210       H    0.0239913776    0.0551994430    0.1550254736         -0.4647
H211       H    0.0747766780    0.0699805173    0.3643982112          0.5113
H212       H    0.0597311303    0.0900295705    0.3262056529          0.4954
H213       H    0.0859646197    0.0527065938    0.3237798797         -0.4632
H214       H   -0.0032419108   -0.0314984104    0.3172411608         -0.4382
loop_
_geom_bond_atom_site_label_1
_geom_bond_atom_site_label_2
_geom_bond_distance
_geom_bond_site_symmetry_2
_ccdc_geom_bond_type
Zn1          O5 1.942       .   S
Zn1          O6 1.922       .   S
Zn1         O10 1.922       .   S
Zn1         O17 1.922       .   S
Zn2          O5 1.942       .   S
Zn2          O7 1.922       .   S
Zn2          O9 1.922       .   S
Zn2         O13 1.922       .   S
Zn3          O5 1.942       .   S
Zn3          O8 1.922       .   S
Zn3         O11 1.922       .   S
Zn3         O14 1.922       .   S
Zn4          O5 1.942       .   S
Zn4         O12 1.922       .   S
Zn4         O15 1.922       .   S
Zn4         O16 1.922       .   S
O6          C18 1.304       .   A
O7          C19 1.304       .   A
O8          C20 1.304       .   A
O9          C18 1.304       .   A
O10         C20 1.304       .   A
O11         C19 1.304       .   A
O12         C21 1.304       .   A
O13         C22 1.304       .   A
O14         C21 1.304       .   A
O15         C22 1.304       .   A
O16         C23 1.304       .   A
O17         C23 1.304       .   A
C18        N235 1.540       .   S
C19        N325 1.540       .   S
C20        N295 1.540       .   S
C21        N205 1.540       .   S
C22        C245 1.540       .   S
C23        N355 1.540       .   S
Zn24        O28 1.942       .   S
Zn24        O29 1.922       .   S
Zn24        O33 1.922       .   S
Zn24        O40 1.922       .   S
Zn25        O28 1.942       .   S
Zn25        O30 1.922       .   S
Zn25        O32 1.922       .   S
Zn25        O36 1.922       .   S
Zn26        O28 1.942       .   S
Zn26        O31 1.922       .   S
Zn26        O34 1.922       .   S
Zn26        O37 1.922       .   S
Zn27        O28 1.942       .   S
Zn27        O35 1.922       .   S
Zn27        O38 1.922       .   S
Zn27        O39 1.922       .   S
O29         C41 1.304       .   A
O30         C42 1.304       .   A
O31         C43 1.304       .   A
O32         C41 1.304       .   A
O33         C43 1.304       .   A
O34         C42 1.304       .   A
O35         C44 1.304       .   A
O36         C45 1.304       .   A
O37         C44 1.304       .   A
O38         C45 1.304       .   A
O39         C46 1.304       .   A
O40         C46 1.304       .   A
C41        C185 1.540   1_655   S
C42        N385 1.540       .   S
C43        N445 1.540       .   S
C44        C215 1.540   1_656   S
C45        N475 1.540       .   S
C46        C395 1.540       .   S
Zn47        O51 1.942       .   S
Zn47        O52 1.922       .   S
Zn47        O56 1.922       .   S
Zn47        O63 1.922       .   S
Zn48        O51 1.942       .   S
Zn48        O53 1.922       .   S
Zn48        O55 1.922       .   S
Zn48        O59 1.922       .   S
Zn49        O51 1.942       .   S
Zn49        O54 1.922       .   S
Zn49        O57 1.922       .   S
Zn49        O60 1.922       .   S
Zn50        O51 1.942       .   S
Zn50        O58 1.922       .   S
Zn50        O61 1.922       .   S
Zn50        O62 1.922       .   S
O52         C64 1.304       .   A
O53         C65 1.304       .   A
O54         C66 1.304       .   A
O55         C64 1.304       .   A
O56         C66 1.304       .   A
O57         C65 1.304       .   A
O58         C67 1.304       .   A
O59         C68 1.304       .   A
O60         C67 1.304       .   A
O61         C68 1.304       .   A
O62         C69 1.304       .   A
O63         C69 1.304       .   A
C64        C305 1.540   1_655   S
C65        C485 1.540       .   S
C66        C545 1.540       .   S
C67        C335 1.540   1_665   S
C68        N595 1.540       .   S
C69        C515 1.540       .   S
Zn70        O74 1.942       .   S
Zn70        O75 1.922       .   S
Zn70        O79 1.922       .   S
Zn70        O86 1.922       .   S
Zn71        O74 1.942       .   S
Zn71        O76 1.922       .   S
Zn71        O78 1.922       .   S
Zn71        O82 1.922       .   S
Zn72        O74 1.942       .   S
Zn72        O77 1.922       .   S
Zn72        O80 1.922       .   S
Zn72        O83 1.922       .   S
Zn73        O74 1.942       .   S
Zn73        O81 1.922       .   S
Zn73        O84 1.922       .   S
Zn73        O85 1.922       .   S
O75         C87 1.304       .   A
O76         C88 1.304       .   A
O77         C89 1.304       .   A
O78         C87 1.304       .   A
O79         C89 1.304       .   A
O80         C88 1.304       .   A
O81         C90 1.304       .   A
O82         C91 1.304       .   A
O83         C90 1.304       .   A
O84         C91 1.304       .   A
O85         C92 1.304       .   A
O86         C92 1.304       .   A
C87        C425 1.540       .   S
C88        N505 1.540       .   S
C89        N655 1.540       .   S
C90        C455 1.540   1_565   S
C91        C605 1.540       .   S
C92        N535 1.540   1_556   S
Zn93        O97 1.942       .   S
Zn93        O98 1.922       .   S
Zn93       O102 1.922       .   S
Zn93       O109 1.922       .   S
Zn94        O97 1.942       .   S
Zn94        O99 1.922       .   S
Zn94       O101 1.922       .   S
Zn94       O105 1.922       .   S
Zn95        O97 1.942       .   S
Zn95       O100 1.922       .   S
Zn95       O103 1.922       .   S
Zn95       O106 1.922       .   S
Zn96        O97 1.942       .   S
Zn96       O104 1.922       .   S
Zn96       O107 1.922       .   S
Zn96       O108 1.922       .   S
O98        C110 1.304       .   A
O99        C111 1.304       .   A
O100       C112 1.304       .   A
O101       C110 1.304       .   A
O102       C112 1.304       .   A
O103       C111 1.304       .   A
O104       C113 1.304       .   A
O105       C114 1.304       .   A
O106       C113 1.304       .   A
O107       C114 1.304       .   A
O108       C115 1.304       .   A
O109       C115 1.304       .   A
C110       N265 1.540   1_565   S
C111       N685 1.540       .   S
C112       N775 1.540       .   S
C113       C275 1.540   1_665   S
C114       C725 1.540       .   S
C115       C695 1.540       .   S
Zn116      O120 1.942       .   S
Zn116      O121 1.922       .   S
Zn116      O125 1.922       .   S
Zn116      O132 1.922       .   S
Zn117      O120 1.942       .   S
Zn117      O122 1.922       .   S
Zn117      O124 1.922       .   S
Zn117      O128 1.922       .   S
Zn118      O120 1.942       .   S
Zn118      O123 1.922       .   S
Zn118      O126 1.922       .   S
Zn118      O129 1.922       .   S
Zn119      O120 1.942       .   S
Zn119      O127 1.922       .   S
Zn119      O130 1.922       .   S
Zn119      O131 1.922       .   S
O121       C133 1.304       .   A
O122       C134 1.304       .   A
O123       C135 1.304       .   A
O124       C133 1.304       .   A
O125       C135 1.304       .   A
O126       C134 1.304       .   A
O127       C136 1.304       .   A
O128       C137 1.304       .   A
O129       C136 1.304       .   A
O130       C137 1.304       .   A
O131       C138 1.304       .   A
O132       C138 1.304       .   A
C133       C785 1.540       .   S
C134       C365 1.540   1_465   S
C135       C665 1.540       .   S
C136       N835 1.540       .   S
C137       N715 1.540   1_556   S
C138       N415 1.540   1_565   S
Zn139      O143 1.942       .   S
Zn139      O144 1.922       .   S
Zn139      O148 1.922       .   S
Zn139      O155 1.922       .   S
Zn140      O143 1.942       .   S
Zn140      O145 1.922       .   S
Zn140      O147 1.922       .   S
Zn140      O151 1.922       .   S
Zn141      O143 1.942       .   S
Zn141      O146 1.922       .   S
Zn141      O149 1.922       .   S
Zn141      O152 1.922       .   S
Zn142      O143 1.942       .   S
Zn142      O150 1.922       .   S
Zn142      O153 1.922       .   S
Zn142      O154 1.922       .   S
O144       C156 1.304       .   A
O145       C157 1.304       .   A
O146       C158 1.304       .   A
O147       C156 1.304       .   A
O148       C158 1.304       .   A
O149       C157 1.304       .   A
O150       C159 1.304       .   A
O151       C160 1.304       .   A
O152       C159 1.304       .   A
O153       C160 1.304       .   A
O154       C161 1.304       .   A
O155       C161 1.304       .   A
C156       N565 1.540   1_455   S
C157       N745 1.540   1_545   S
C158       N895 1.540       .   S
C159       C575 1.540       .   S
C160       N865 1.540       .   S
C161       C755 1.540       .   S
Zn162      O166 1.942       .   S
Zn162      O167 1.922       .   S
Zn162      O171 1.922       .   S
Zn162      O178 1.922       .   S
Zn163      O166 1.942       .   S
Zn163      O168 1.922       .   S
Zn163      O170 1.922       .   S
Zn163      O174 1.922       .   S
Zn164      O166 1.942       .   S
Zn164      O169 1.922       .   S
Zn164      O172 1.922       .   S
Zn164      O175 1.922       .   S
Zn165      O166 1.942       .   S
Zn165      O173 1.922       .   S
Zn165      O176 1.922       .   S
Zn165      O177 1.922       .   S
O167       C179 1.304       .   A
O168       C180 1.304       .   A
O169       C181 1.304       .   A
O170       C179 1.304       .   A
O171       C181 1.304       .   A
O172       C180 1.304       .   A
O173       C182 1.304       .   A
O174       C183 1.304       .   A
O175       C182 1.304       .   A
O176       C183 1.304       .   A
O177       C184 1.304       .   A
O178       C184 1.304       .   A
C179       N625 1.540   1_455   S
C180       N805 1.540   1_545   S
C181       C845 1.540       .   S
C182       C635 1.540       .   S
C183       C875 1.540   1_556   S
C184       C815 1.540       .   S
C875       C876 0.032       .   A
C875       C880 0.031       .   A
C876       C877 0.032       .   A
C876       H883 0.026       .   A
C877       C878 0.032       .   A
C877       C882 0.036       .   A
C878       C879 0.031       .   A
C878       C881 0.037       .   A
C879       C880 0.031       .   A
C879       H885 0.026       .   A
C880       O884 0.030       .   A
C881       C886 0.037       .   A
C881       N889 0.026       .   A
C881       H893 0.026       .   A
C882       H901 0.026       .   A
C882       H902 0.026       .   A
C882       H903 0.026       .   A
O884       H904 0.024       .   A
C886       N887 0.035       .   A
C886       H891 0.026       .   A
C886       H892 0.026       .   A
N887       N888 0.026       .   A
N887       C890 0.035       .   A
N888       N889 0.032       .   A
C890       C894 0.037       .   A
C890       N897 0.026       .   A
C890       H900 0.026       .   A
C894       N895 0.035       .   A
C894       H898 0.026       .   A
C894       H899 0.026       .   A
N895       N896 0.026       .   A
N896       N897 0.032       .   A
C845       C846 0.032       .   A
C845       C850 0.031       .   A
C846       C847 0.032       .   A
C846       H853 0.026       .   A
C847       C848 0.032       .   A
C847       C852 0.036       .   A
C848       C849 0.031       .   A
C848       C851 0.037       .   A
C849       C850 0.031       .   A
C849       H855 0.026       .   A
C850       O854 0.030       .   A
C851       C856 0.037       .   A
C851       N859 0.026       .   A
C851       H863 0.026       .   A
C852       H871 0.026       .   A
C852       H872 0.026       .   A
C852       H873 0.026       .   A
O854       H874 0.024       .   A
C856       N857 0.035       .   A
C856       H861 0.026       .   A
C856       H862 0.026       .   A
N857       N858 0.026       .   A
N857       C860 0.035       .   A
N858       N859 0.032       .   A
C860       C864 0.037       .   A
C860       N867 0.026       .   A
C860       H870 0.026       .   A
C864       N865 0.035       .   A
C864       H868 0.026       .   A
C864       H869 0.026       .   A
N865       N866 0.026       .   A
N866       N867 0.032       .   A
C815       C816 0.032       .   A
C815       C820 0.031       .   A
C816       C817 0.032       .   A
C816       H823 0.026       .   A
C817       C818 0.032       .   A
C817       C822 0.036       .   A
C818       C819 0.031       .   A
C818       C821 0.037       .   A
C819       C820 0.031       .   A
C819       H825 0.026       .   A
C820       O824 0.030       .   A
C821       C826 0.037       .   A
C821       N829 0.026       .   A
C821       H833 0.026       .   A
C822       H841 0.026       .   A
C822       H842 0.026       .   A
C822       H843 0.026       .   A
O824       H844 0.024       .   A
C826       N827 0.035       .   A
C826       H831 0.026       .   A
C826       H832 0.026       .   A
N827       N828 0.026       .   A
N827       C830 0.035       .   A
N828       N829 0.032       .   A
C830       C834 0.037       .   A
C830       N837 0.026       .   A
C830       H840 0.026       .   A
C834       N835 0.035       .   A
C834       H838 0.026       .   A
C834       H839 0.026       .   A
N835       N836 0.026       .   A
N836       N837 0.032       .   A
C785       C786 0.032       .   A
C785       C790 0.031       .   A
C786       C787 0.032       .   A
C786       H793 0.026       .   A
C787       C788 0.032       .   A
C787       C792 0.036       .   A
C788       C789 0.031       .   A
C788       C791 0.037       .   A
C789       C790 0.031       .   A
C789       H795 0.026       .   A
C790       O794 0.030       .   A
C791       C796 0.037       .   A
C791       N799 0.026       .   A
C791       H803 0.026       .   A
C792       H811 0.026       .   A
C792       H812 0.026       .   A
C792       H813 0.026       .   A
O794       H814 0.024       .   A
C796       N797 0.035       .   A
C796       H801 0.026       .   A
C796       H802 0.026       .   A
N797       N798 0.026       .   A
N797       C800 0.035       .   A
N798       N799 0.032       .   A
C800       C804 0.037       .   A
C800       N807 0.026       .   A
C800       H810 0.026       .   A
C804       N805 0.035       .   A
C804       H808 0.026       .   A
C804       H809 0.026       .   A
N805       N806 0.026       .   A
N806       N807 0.032       .   A
C755       C756 0.032       .   A
C755       C760 0.031       .   A
C756       C757 0.032       .   A
C756       H763 0.026       .   A
C757       C758 0.032       .   A
C757       C762 0.036       .   A
C758       C759 0.031       .   A
C758       C761 0.037       .   A
C759       C760 0.031       .   A
C759       H765 0.026       .   A
C760       O764 0.030       .   A
C761       C766 0.037       .   A
C761       N769 0.026       .   A
C761       H773 0.026       .   A
C762       H781 0.026       .   A
C762       H782 0.026       .   A
C762       H783 0.026       .   A
O764       H784 0.024       .   A
C766       N767 0.035       .   A
C766       H771 0.026       .   A
C766       H772 0.026       .   A
N767       N768 0.026       .   A
N767       C770 0.035       .   A
N768       N769 0.032       .   A
C770       C774 0.037       .   A
C770       N777 0.026       .   A
C770       H780 0.026       .   A
C774       N775 0.035       .   A
C774       H778 0.026       .   A
C774       H779 0.026       .   A
N775       N776 0.026       .   A
N776       N777 0.032       .   A
C725       C726 0.032       .   A
C725       C730 0.031       .   A
C726       C727 0.032       .   A
C726       H733 0.026       .   A
C727       C728 0.032       .   A
C727       C732 0.036       .   A
C728       C729 0.031       .   A
C728       C731 0.037       .   A
C729       C730 0.031       .   A
C729       H735 0.026       .   A
C730       O734 0.030       .   A
C731       C736 0.037       .   A
C731       N739 0.026       .   A
C731       H743 0.026       .   A
C732       H751 0.026       .   A
C732       H752 0.026       .   A
C732       H753 0.026       .   A
O734       H754 0.024       .   A
C736       N737 0.035       .   A
C736       H741 0.026       .   A
C736       H742 0.026       .   A
N737       N738 0.026       .   A
N737       C740 0.035       .   A
N738       N739 0.032       .   A
C740       C744 0.037       .   A
C740       N747 0.026       .   A
C740       H750 0.026       .   A
C744       N745 0.035       .   A
C744       H748 0.026       .   A
C744       H749 0.026       .   A
N745       N746 0.026       .   A
N746       N747 0.032       .   A
C695       C696 0.032       .   A
C695       C700 0.031       .   A
C696       C697 0.032       .   A
C696       H703 0.026       .   A
C697       C698 0.032       .   A
C697       C702 0.036       .   A
C698       C699 0.031       .   A
C698       C701 0.037       .   A
C699       C700 0.031       .   A
C699       H705 0.026       .   A
C700       O704 0.030       .   A
C701       C706 0.037       .   A
C701       N709 0.026       .   A
C701       H713 0.026       .   A
C702       H721 0.026       .   A
C702       H722 0.026       .   A
C702       H723 0.026       .   A
O704       H724 0.024       .   A
C706       N707 0.035       .   A
C706       H711 0.026       .   A
C706       H712 0.026       .   A
N707       N708 0.026       .   A
N707       C710 0.035       .   A
N708       N709 0.032       .   A
C710       C714 0.037       .   A
C710       N717 0.026       .   A
C710       H720 0.026       .   A
C714       N715 0.035       .   A
C714       H718 0.026       .   A
C714       H719 0.026       .   A
N715       N716 0.026       .   A
N716       N717 0.032       .   A
C665       C666 0.032       .   A
C665       C670 0.031       .   A
C666       C667 0.032       .   A
C666       H673 0.026       .   A
C667       C668 0.032       .   A
C667       C672 0.036       .   A
C668       C669 0.031       .   A
C668       C671 0.037       .   A
C669       C670 0.031       .   A
C669       H675 0.026       .   A
C670       O674 0.030       .   A
C671       C676 0.037       .   A
C671       N679 0.026       .   A
C671       H683 0.026       .   A
C672       H691 0.026       .   A
C672       H692 0.026       .   A
C672       H693 0.026       .   A
O674       H694 0.024       .   A
C676       N677 0.035       .   A
C676       H681 0.026       .   A
C676       H682 0.026       .   A
N677       N678 0.026       .   A
N677       C680 0.035       .   A
N678       N679 0.032       .   A
C680       C684 0.037       .   A
C680       N687 0.026       .   A
C680       H690 0.026       .   A
C684       N685 0.035       .   A
C684       H688 0.026       .   A
C684       H689 0.026       .   A
N685       N686 0.026       .   A
N686       N687 0.032       .   A
C635       C636 0.032       .   A
C635       C640 0.031       .   A
C636       C637 0.032       .   A
C636       H643 0.026       .   A
C637       C638 0.032       .   A
C637       C642 0.036       .   A
C638       C639 0.031       .   A
C638       C641 0.037       .   A
C639       C640 0.031       .   A
C639       H645 0.026       .   A
C640       O644 0.030       .   A
C641       C646 0.037       .   A
C641       N649 0.026       .   A
C641       H653 0.026       .   A
C642       H661 0.026       .   A
C642       H662 0.026       .   A
C642       H663 0.026       .   A
O644       H664 0.024       .   A
C646       N647 0.035       .   A
C646       H651 0.026       .   A
C646       H652 0.026       .   A
N647       N648 0.026       .   A
N647       C650 0.035       .   A
N648       N649 0.032       .   A
C650       C654 0.037       .   A
C650       N657 0.026       .   A
C650       H660 0.026       .   A
C654       N655 0.035       .   A
C654       H658 0.026       .   A
C654       H659 0.026       .   A
N655       N656 0.026       .   A
N656       N657 0.032       .   A
C605       C606 0.032       .   A
C605       C610 0.031       .   A
C606       C607 0.032       .   A
C606       H613 0.026       .   A
C607       C608 0.032       .   A
C607       C612 0.036       .   A
C608       C609 0.031       .   A
C608       C611 0.037       .   A
C609       C610 0.031       .   A
C609       H615 0.026       .   A
C610       O614 0.030       .   A
C611       C616 0.037       .   A
C611       N619 0.026       .   A
C611       H623 0.026       .   A
C612       H631 0.026       .   A
C612       H632 0.026       .   A
C612       H633 0.026       .   A
O614       H634 0.024       .   A
C616       N617 0.035       .   A
C616       H621 0.026       .   A
C616       H622 0.026       .   A
N617       N618 0.026       .   A
N617       C620 0.035       .   A
N618       N619 0.032       .   A
C620       C624 0.037       .   A
C620       N627 0.026       .   A
C620       H630 0.026       .   A
C624       N625 0.035       .   A
C624       H628 0.026       .   A
C624       H629 0.026       .   A
N625       N626 0.026       .   A
N626       N627 0.032       .   A
C575       C576 0.032       .   A
C575       C580 0.031       .   A
C576       C577 0.032       .   A
C576       H583 0.026       .   A
C577       C578 0.032       .   A
C577       C582 0.036       .   A
C578       C579 0.031       .   A
C578       C581 0.037       .   A
C579       C580 0.031       .   A
C579       H585 0.026       .   A
C580       O584 0.030       .   A
C581       C586 0.037       .   A
C581       N589 0.026       .   A
C581       H593 0.026       .   A
C582       H601 0.026       .   A
C582       H602 0.026       .   A
C582       H603 0.026       .   A
O584       H604 0.024       .   A
C586       N587 0.035       .   A
C586       H591 0.026       .   A
C586       H592 0.026       .   A
N587       N588 0.026       .   A
N587       C590 0.035       .   A
N588       N589 0.032       .   A
C590       C594 0.037       .   A
C590       N597 0.026       .   A
C590       H600 0.026       .   A
C594       N595 0.035       .   A
C594       H598 0.026       .   A
C594       H599 0.026       .   A
N595       N596 0.026       .   A
N596       N597 0.032       .   A
C545       C546 0.032       .   A
C545       C550 0.031       .   A
C546       C547 0.032       .   A
C546       H553 0.026       .   A
C547       C548 0.032       .   A
C547       C552 0.036       .   A
C548       C549 0.031       .   A
C548       C551 0.037       .   A
C549       C550 0.031       .   A
C549       H555 0.026       .   A
C550       O554 0.030       .   A
C551       C556 0.037       .   A
C551       N559 0.026       .   A
C551       H563 0.026       .   A
C552       H571 0.026       .   A
C552       H572 0.026       .   A
C552       H573 0.026       .   A
O554       H574 0.024       .   A
C556       N557 0.035       .   A
C556       H561 0.026       .   A
C556       H562 0.026       .   A
N557       N558 0.026       .   A
N557       C560 0.035       .   A
N558       N559 0.032       .   A
C560       C564 0.037       .   A
C560       N567 0.026       .   A
C560       H570 0.026       .   A
C564       N565 0.035       .   A
C564       H568 0.026       .   A
C564       H569 0.026       .   A
N565       N566 0.026       .   A
N566       N567 0.032       .   A
C515       C516 0.032       .   A
C515       C520 0.031       .   A
C516       C517 0.032       .   A
C516       H523 0.026       .   A
C517       C518 0.032       .   A
C517       C522 0.036       .   A
C518       C519 0.031       .   A
C518       C521 0.037       .   A
C519       C520 0.031       .   A
C519       H525 0.026       .   A
C520       O524 0.030       .   A
C521       C526 0.037       .   A
C521       N529 0.026       .   A
C521       H533 0.026       .   A
C522       H541 0.026       .   A
C522       H542 0.026       .   A
C522       H543 0.026       .   A
O524       H544 0.024       .   A
C526       N527 0.035       .   A
C526       H531 0.026       .   A
C526       H532 0.026       .   A
N527       N528 0.026       .   A
N527       C530 0.035       .   A
N528       N529 0.032       .   A
C530       C534 0.037       .   A
C530       N537 0.026       .   A
C530       H540 0.026       .   A
C534       N535 0.035       .   A
C534       H538 0.026       .   A
C534       H539 0.026       .   A
N535       N536 0.026       .   A
N536       N537 0.032       .   A
C485       C486 0.032       .   A
C485       C490 0.031       .   A
C486       C487 0.032       .   A
C486       H493 0.026       .   A
C487       C488 0.032       .   A
C487       C492 0.036       .   A
C488       C489 0.031       .   A
C488       C491 0.037       .   A
C489       C490 0.031       .   A
C489       H495 0.026       .   A
C490       O494 0.030       .   A
C491       C496 0.037       .   A
C491       N499 0.026       .   A
C491       H503 0.026       .   A
C492       H511 0.026       .   A
C492       H512 0.026       .   A
C492       H513 0.026       .   A
O494       H514 0.024       .   A
C496       N497 0.035       .   A
C496       H501 0.026       .   A
C496       H502 0.026       .   A
N497       N498 0.026       .   A
N497       C500 0.035       .   A
N498       N499 0.032       .   A
C500       C504 0.037       .   A
C500       N507 0.026       .   A
C500       H510 0.026       .   A
C504       N505 0.035       .   A
C504       H508 0.026       .   A
C504       H509 0.026       .   A
N505       N506 0.026       .   A
N506       N507 0.032       .   A
C455       C456 0.032       .   A
C455       C460 0.031       .   A
C456       C457 0.032       .   A
C456       H463 0.026       .   A
C457       C458 0.032       .   A
C457       C462 0.036       .   A
C458       C459 0.031       .   A
C458       C461 0.037       .   A
C459       C460 0.031       .   A
C459       H465 0.026       .   A
C460       O464 0.030       .   A
C461       C466 0.037       .   A
C461       N469 0.026       .   A
C461       H473 0.026       .   A
C462       H481 0.026       .   A
C462       H482 0.026       .   A
C462       H483 0.026       .   A
O464       H484 0.024       .   A
C466       N467 0.035       .   A
C466       H471 0.026       .   A
C466       H472 0.026       .   A
N467       N468 0.026       .   A
N467       C470 0.035       .   A
N468       N469 0.032       .   A
C470       C474 0.037       .   A
C470       N477 0.026       .   A
C470       H480 0.026       .   A
C474       N475 0.035       .   A
C474       H478 0.026       .   A
C474       H479 0.026       .   A
N475       N476 0.026       .   A
N476       N477 0.032       .   A
C425       C426 0.032       .   A
C425       C430 0.031       .   A
C426       C427 0.032       .   A
C426       H433 0.026       .   A
C427       C428 0.032       .   A
C427       C432 0.036       .   A
C428       C429 0.031       .   A
C428       C431 0.037       .   A
C429       C430 0.031       .   A
C429       H435 0.026       .   A
C430       O434 0.030       .   A
C431       C436 0.037       .   A
C431       N439 0.026       .   A
C431       H443 0.026       .   A
C432       H451 0.026       .   A
C432       H452 0.026       .   A
C432       H453 0.026       .   A
O434       H454 0.024       .   A
C436       N437 0.035       .   A
C436       H441 0.026       .   A
C436       H442 0.026       .   A
N437       N438 0.026       .   A
N437       C440 0.035       .   A
N438       N439 0.032       .   A
C440       C444 0.037       .   A
C440       N447 0.026       .   A
C440       H450 0.026       .   A
C444       N445 0.035       .   A
C444       H448 0.026       .   A
C444       H449 0.026       .   A
N445       N446 0.026       .   A
N446       N447 0.032       .   A
C395       C396 0.032       .   A
C395       C400 0.031       .   A
C396       C397 0.032       .   A
C396       H403 0.026       .   A
C397       C398 0.032       .   A
C397       C402 0.036       .   A
C398       C399 0.031       .   A
C398       C401 0.037       .   A
C399       C400 0.031       .   A
C399       H405 0.026       .   A
C400       O404 0.030       .   A
C401       C406 0.037       .   A
C401       N409 0.026       .   A
C401       H413 0.026       .   A
C402       H421 0.026       .   A
C402       H422 0.026       .   A
C402       H423 0.026       .   A
O404       H424 0.024       .   A
C406       N407 0.035       .   A
C406       H411 0.026       .   A
C406       H412 0.026       .   A
N407       N408 0.026       .   A
N407       C410 0.035       .   A
N408       N409 0.032       .   A
C410       C414 0.037       .   A
C410       N417 0.026       .   A
C410       H420 0.026       .   A
C414       N415 0.035       .   A
C414       H418 0.026       .   A
C414       H419 0.026       .   A
N415       N416 0.026       .   A
N416       N417 0.032       .   A
C365       C366 0.032       .   A
C365       C370 0.031       .   A
C366       C367 0.032       .   A
C366       H373 0.026       .   A
C367       C368 0.032       .   A
C367       C372 0.036       .   A
C368       C369 0.031       .   A
C368       C371 0.037       .   A
C369       C370 0.031       .   A
C369       H375 0.026       .   A
C370       O374 0.030       .   A
C371       C376 0.037       .   A
C371       N379 0.026       .   A
C371       H383 0.026       .   A
C372       H391 0.026       .   A
C372       H392 0.026       .   A
C372       H393 0.026       .   A
O374       H394 0.024       .   A
C376       N377 0.035       .   A
C376       H381 0.026       .   A
C376       H382 0.026       .   A
N377       N378 0.026       .   A
N377       C380 0.035       .   A
N378       N379 0.032       .   A
C380       C384 0.037       .   A
C380       N387 0.026       .   A
C380       H390 0.026       .   A
C384       N385 0.035       .   A
C384       H388 0.026       .   A
C384       H389 0.026       .   A
N385       N386 0.026       .   A
N386       N387 0.032       .   A
C335       C336 0.032       .   A
C335       C340 0.031       .   A
C336       C337 0.032       .   A
C336       H343 0.026       .   A
C337       C338 0.032       .   A
C337       C342 0.036       .   A
C338       C339 0.031       .   A
C338       C341 0.037       .   A
C339       C340 0.031       .   A
C339       H345 0.026       .   A
C340       O344 0.030       .   A
C341       C346 0.037       .   A
C341       N349 0.026       .   A
C341       H353 0.026       .   A
C342       H361 0.026       .   A
C342       H362 0.026       .   A
C342       H363 0.026       .   A
O344       H364 0.024       .   A
C346       N347 0.035       .   A
C346       H351 0.026       .   A
C346       H352 0.026       .   A
N347       N348 0.026       .   A
N347       C350 0.035       .   A
N348       N349 0.032       .   A
C350       C354 0.037       .   A
C350       N357 0.026       .   A
C350       H360 0.026       .   A
C354       N355 0.035       .   A
C354       H358 0.026       .   A
C354       H359 0.026       .   A
N355       N356 0.026       .   A
N356       N357 0.032       .   A
C305       C306 0.032       .   A
C305       C310 0.031       .   A
C306       C307 0.032       .   A
C306       H313 0.026       .   A
C307       C308 0.032       .   A
C307       C312 0.036       .   A
C308       C309 0.031       .   A
C308       C311 0.037       .   A
C309       C310 0.031       .   A
C309       H315 0.026       .   A
C310       O314 0.030       .   A
C311       C316 0.037       .   A
C311       N319 0.026       .   A
C311       H323 0.026       .   A
C312       H331 0.026       .   A
C312       H332 0.026       .   A
C312       H333 0.026       .   A
O314       H334 0.024       .   A
C316       N317 0.035       .   A
C316       H321 0.026       .   A
C316       H322 0.026       .   A
N317       N318 0.026       .   A
N317       C320 0.035       .   A
N318       N319 0.032       .   A
C320       C324 0.037       .   A
C320       N327 0.026       .   A
C320       H330 0.026       .   A
C324       N325 0.035       .   A
C324       H328 0.026       .   A
C324       H329 0.026       .   A
N325       N326 0.026       .   A
N326       N327 0.032       .   A
C275       C276 0.032       .   A
C275       C280 0.031       .   A
C276       C277 0.032       .   A
C276       H283 0.026       .   A
C277       C278 0.032       .   A
C277       C282 0.036       .   A
C278       C279 0.031       .   A
C278       C281 0.037       .   A
C279       C280 0.031       .   A
C279       H285 0.026       .   A
C280       O284 0.030       .   A
C281       C286 0.037       .   A
C281       N289 0.026       .   A
C281       H293 0.026       .   A
C282       H301 0.026       .   A
C282       H302 0.026       .   A
C282       H303 0.026       .   A
O284       H304 0.024       .   A
C286       N287 0.035       .   A
C286       H291 0.026       .   A
C286       H292 0.026       .   A
N287       N288 0.026       .   A
N287       C290 0.035       .   A
N288       N289 0.032       .   A
C290       C294 0.037       .   A
C290       N297 0.026       .   A
C290       H300 0.026       .   A
C294       N295 0.035       .   A
C294       H298 0.026       .   A
C294       H299 0.026       .   A
N295       N296 0.026       .   A
N296       N297 0.032       .   A
C245       C246 0.032       .   A
C245       C250 0.031       .   A
C246       C247 0.032       .   A
C246       H253 0.026       .   A
C247       C248 0.032       .   A
C247       C252 0.036       .   A
C248       C249 0.031       .   A
C248       C251 0.037       .   A
C249       C250 0.031       .   A
C249       H255 0.026       .   A
C250       O254 0.030       .   A
C251       C256 0.037       .   A
C251       N259 0.026       .   A
C251       H263 0.026       .   A
C252       H271 0.026       .   A
C252       H272 0.026       .   A
C252       H273 0.026       .   A
O254       H274 0.024       .   A
C256       N257 0.035       .   A
C256       H261 0.026       .   A
C256       H262 0.026       .   A
N257       N258 0.026       .   A
N257       C260 0.035       .   A
N258       N259 0.032       .   A
C260       C264 0.037       .   A
C260       N267 0.026       .   A
C260       H270 0.026       .   A
C264       N265 0.035       .   A
C264       H268 0.026       .   A
C264       H269 0.026       .   A
N265       N266 0.026       .   A
N266       N267 0.032       .   A
C215       C216 0.032       .   A
C215       C220 0.031       .   A
C216       C217 0.032       .   A
C216       H223 0.026       .   A
C217       C218 0.032       .   A
C217       C222 0.036       .   A
C218       C219 0.031       .   A
C218       C221 0.037       .   A
C219       C220 0.031       .   A
C219       H225 0.026       .   A
C220       O224 0.030       .   A
C221       C226 0.037       .   A
C221       N229 0.026       .   A
C221       H233 0.026       .   A
C222       H241 0.026       .   A
C222       H242 0.026       .   A
C222       H243 0.026       .   A
O224       H244 0.024       .   A
C226       N227 0.035       .   A
C226       H231 0.026       .   A
C226       H232 0.026       .   A
N227       N228 0.026       .   A
N227       C230 0.035       .   A
N228       N229 0.032       .   A
C230       C234 0.037       .   A
C230       N237 0.026       .   A
C230       H240 0.026       .   A
C234       N235 0.035       .   A
C234       H238 0.026       .   A
C234       H239 0.026       .   A
N235       N236 0.026       .   A
N236       N237 0.032       .   A
C185       C186 0.032       .   A
C185       C190 0.031       .   A
C186       C187 0.032       .   A
C186       H193 0.026       .   A
C187       C188 0.032       .   A
C187       C192 0.036       .   A
C188       C189 0.031       .   A
C188       C191 0.037       .   A
C189       C190 0.031       .   A
C189       H195 0.026       .   A
C190       O194 0.030       .   A
C191       C196 0.037       .   A
C191       N199 0.026       .   A
C191       H203 0.026       .   A
C192       H211 0.026       .   A
C192       H212 0.026       .   A
C192       H213 0.026       .   A
O194       H214 0.024       .   A
C196       N197 0.035       .   A
C196       H201 0.026       .   A
C196       H202 0.026       .   A
N197       N198 0.026       .   A
N197       C200 0.035       .   A
N198       N199 0.032       .   A
C200       C204 0.037       .   A
C200       N207 0.026       .   A
C200       H210 0.026       .   A
C204       N205 0.035       .   A
C204       H208 0.026       .   A
C204       H209 0.026       .   A
N205       N206 0.026       .   A
N206       N207 0.032       .   A
