data_pcu_v1-6c_Zn_1_Ch_1-4_fer_tobacco
_audit_creation_date              2021-02-03
_audit_creation_method            'tobacco_3.0'
_symmetry_space_group_name_H-M    'P1'
_symmetry_Int_Tables_number       1
_symmetry_cell_setting            triclinic
loop_
_symmetry_equiv_pos_as_xyz
  x,y,z
_cell_length_a                    42.07762458139074
_cell_length_b                    42.07762458139074
_cell_length_c                    42.07762458139074
_cell_angle_alpha                 90.0
_cell_angle_beta                  90.0
_cell_angle_gamma                 90.0
loop_
_atom_site_label
_atom_site_type_symbol
_atom_site_fract_x
_atom_site_fract_y
_atom_site_fract_z
_atom_site_charge
Zn1       Zn   -0.0266459909    0.0266459909   -0.0266459909          1.4972
Zn2       Zn    0.0266459909    0.0266459909    0.0266459909          1.4936
Zn3       Zn   -0.0266459909   -0.0266459909    0.0266459909          1.4911
Zn4       Zn    0.0266459909   -0.0266459909   -0.0266459909          1.4948
O5         O    0.0000000000    0.0000000000    0.0000000000          -2.317
O6         O   -0.0195828545    0.0712159973   -0.0195828545         -1.2233
O7         O    0.0195828545    0.0195828545    0.0712159973         -1.2215
O8         O   -0.0712159973   -0.0195828545    0.0195828545         -1.2166
O9         O    0.0195828545    0.0712159973    0.0195828545         -1.2234
O10        O   -0.0712159973    0.0195828545   -0.0195828545         -1.2194
O11        O   -0.0195828545   -0.0195828545    0.0712159973         -1.2253
O12        O    0.0195828545   -0.0712159973   -0.0195828545         -1.2192
O13        O    0.0712159973    0.0195828545    0.0195828545         -1.2267
O14        O   -0.0195828545   -0.0712159973    0.0195828545         -1.2206
O15        O    0.0712159973   -0.0195828545   -0.0195828545         -1.2253
O16        O    0.0195828545   -0.0195828545   -0.0712159973         -1.2244
O17        O   -0.0195828545    0.0195828545   -0.0712159973         -1.2223
C18        C   -0.0000000000    0.0851473921   -0.0000000000          0.2956
C19        C    0.0000000000   -0.0000000000    0.0851473921          0.3005
C20        C   -0.0851473921    0.0000000000   -0.0000000000          0.2901
C21        C    0.0000000000   -0.0851473921    0.0000000000          0.2939
C22        C    0.0851473921   -0.0000000000    0.0000000000          0.3052
C23        C   -0.0000000000    0.0000000000   -0.0851473921          0.2957
Zn24      Zn    1.0266459909    0.0266459909    0.4733540091          1.4972
Zn25      Zn    0.9733540091    0.0266459909    0.5266459909          1.4936
Zn26      Zn    0.9733540091   -0.0266459909    0.4733540091          1.4911
Zn27      Zn    1.0266459909   -0.0266459909    0.5266459909          1.4948
O28        O    1.0000000000    0.0000000000    0.5000000000          -2.317
O29        O    1.0195828545    0.0712159973    0.4804171455         -1.2233
O30        O    0.9287840027    0.0195828545    0.5195828545         -1.2215
O31        O    0.9804171455   -0.0195828545    0.4287840027         -1.2166
O32        O    0.9804171455    0.0712159973    0.5195828545         -1.2234
O33        O    1.0195828545    0.0195828545    0.4287840027         -1.2194
O34        O    0.9287840027   -0.0195828545    0.4804171455         -1.2253
O35        O    1.0195828545   -0.0712159973    0.5195828545         -1.2192
O36        O    0.9804171455    0.0195828545    0.5712159973         -1.2267
O37        O    0.9804171455   -0.0712159973    0.4804171455         -1.2206
O38        O    1.0195828545   -0.0195828545    0.5712159973         -1.2253
O39        O    1.0712159973   -0.0195828545    0.5195828545         -1.2244
O40        O    1.0712159973    0.0195828545    0.4804171455         -1.2223
C41        C    1.0000000000    0.0851473921    0.5000000000          0.2956
C42        C    0.9148526079    0.0000000000    0.5000000000          0.3005
C43        C    1.0000000000    0.0000000000    0.4148526079          0.2901
C44        C    1.0000000000   -0.0851473921    0.5000000000          0.2939
C45        C    1.0000000000    0.0000000000    0.5851473921          0.3052
C46        C    1.0851473921    0.0000000000    0.5000000000          0.2957
Zn47      Zn    1.0266459909    0.4733540091   -0.0266459909          1.4972
Zn48      Zn    0.9733540091    0.4733540091    0.0266459909          1.4936
Zn49      Zn    1.0266459909    0.5266459909    0.0266459909          1.4911
Zn50      Zn    0.9733540091    0.5266459909   -0.0266459909          1.4948
O51        O    1.0000000000    0.5000000000    0.0000000000          -2.317
O52        O    1.0195828545    0.4287840027   -0.0195828545         -1.2233
O53        O    0.9804171455    0.4804171455    0.0712159973         -1.2215
O54        O    1.0712159973    0.5195828545    0.0195828545         -1.2166
O55        O    0.9804171455    0.4287840027    0.0195828545         -1.2234
O56        O    1.0712159973    0.4804171455   -0.0195828545         -1.2194
O57        O    1.0195828545    0.5195828545    0.0712159973         -1.2253
O58        O    0.9804171455    0.5712159973   -0.0195828545         -1.2192
O59        O    0.9287840027    0.4804171455    0.0195828545         -1.2267
O60        O    1.0195828545    0.5712159973    0.0195828545         -1.2206
O61        O    0.9287840027    0.5195828545   -0.0195828545         -1.2253
O62        O    0.9804171455    0.5195828545   -0.0712159973         -1.2244
O63        O    1.0195828545    0.4804171455   -0.0712159973         -1.2223
C64        C    1.0000000000    0.4148526079    0.0000000000          0.2956
C65        C    1.0000000000    0.5000000000    0.0851473921          0.3005
C66        C    1.0851473921    0.5000000000    0.0000000000          0.2901
C67        C    1.0000000000    0.5851473921    0.0000000000          0.2939
C68        C    0.9148526079    0.5000000000    0.0000000000          0.3052
C69        C    1.0000000000    0.5000000000   -0.0851473921          0.2957
Zn70      Zn    0.9733540091    0.4733540091    0.5266459909          1.4972
Zn71      Zn    1.0266459909    0.4733540091    0.4733540091          1.4936
Zn72      Zn    0.9733540091    0.5266459909    0.4733540091          1.4911
Zn73      Zn    1.0266459909    0.5266459909    0.5266459909          1.4948
O74        O    1.0000000000    0.5000000000    0.5000000000          -2.317
O75        O    0.9804171455    0.4287840027    0.5195828545         -1.2233
O76        O    1.0195828545    0.4804171455    0.4287840027         -1.2215
O77        O    0.9287840027    0.5195828545    0.4804171455         -1.2166
O78        O    1.0195828545    0.4287840027    0.4804171455         -1.2234
O79        O    0.9287840027    0.4804171455    0.5195828545         -1.2194
O80        O    0.9804171455    0.5195828545    0.4287840027         -1.2253
O81        O    1.0195828545    0.5712159973    0.5195828545         -1.2192
O82        O    1.0712159973    0.4804171455    0.4804171455         -1.2267
O83        O    0.9804171455    0.5712159973    0.4804171455         -1.2206
O84        O    1.0712159973    0.5195828545    0.5195828545         -1.2253
O85        O    1.0195828545    0.5195828545    0.5712159973         -1.2244
O86        O    0.9804171455    0.4804171455    0.5712159973         -1.2223
C87        C    1.0000000000    0.4148526079    0.5000000000          0.2956
C88        C    1.0000000000    0.5000000000    0.4148526079          0.3005
C89        C    0.9148526079    0.5000000000    0.5000000000          0.2901
C90        C    1.0000000000    0.5851473921    0.5000000000          0.2939
C91        C    1.0851473921    0.5000000000    0.5000000000          0.3052
C92        C    1.0000000000    0.5000000000    0.5851473921          0.2957
Zn93      Zn    0.4733540091    0.9733540091   -0.0266459909          1.4972
Zn94      Zn    0.4733540091    1.0266459909    0.0266459909          1.4936
Zn95      Zn    0.5266459909    0.9733540091    0.0266459909          1.4911
Zn96      Zn    0.5266459909    1.0266459909   -0.0266459909          1.4948
O97        O    0.5000000000    1.0000000000    0.0000000000          -2.317
O98        O    0.4287840027    0.9804171455   -0.0195828545         -1.2233
O99        O    0.4804171455    1.0195828545    0.0712159973         -1.2215
O100       O    0.5195828545    0.9287840027    0.0195828545         -1.2166
O101       O    0.4287840027    1.0195828545    0.0195828545         -1.2234
O102       O    0.4804171455    0.9287840027   -0.0195828545         -1.2194
O103       O    0.5195828545    0.9804171455    0.0712159973         -1.2253
O104       O    0.5712159973    1.0195828545   -0.0195828545         -1.2192
O105       O    0.4804171455    1.0712159973    0.0195828545         -1.2267
O106       O    0.5712159973    0.9804171455    0.0195828545         -1.2206
O107       O    0.5195828545    1.0712159973   -0.0195828545         -1.2253
O108       O    0.5195828545    1.0195828545   -0.0712159973         -1.2244
O109       O    0.4804171455    0.9804171455   -0.0712159973         -1.2223
C110       C    0.4148526079    1.0000000000    0.0000000000          0.2956
C111       C    0.5000000000    1.0000000000    0.0851473921          0.3005
C112       C    0.5000000000    0.9148526079    0.0000000000          0.2901
C113       C    0.5851473921    1.0000000000    0.0000000000          0.2939
C114       C    0.5000000000    1.0851473921    0.0000000000          0.3052
C115       C    0.5000000000    1.0000000000   -0.0851473921          0.2957
Zn116     Zn    0.4733540091    1.0266459909    0.5266459909          1.4972
Zn117     Zn    0.4733540091    0.9733540091    0.4733540091          1.4936
Zn118     Zn    0.5266459909    1.0266459909    0.4733540091          1.4911
Zn119     Zn    0.5266459909    0.9733540091    0.5266459909          1.4948
O120       O    0.5000000000    1.0000000000    0.5000000000          -2.317
O121       O    0.4287840027    1.0195828545    0.5195828545         -1.2233
O122       O    0.4804171455    0.9804171455    0.4287840027         -1.2215
O123       O    0.5195828545    1.0712159973    0.4804171455         -1.2166
O124       O    0.4287840027    0.9804171455    0.4804171455         -1.2234
O125       O    0.4804171455    1.0712159973    0.5195828545         -1.2194
O126       O    0.5195828545    1.0195828545    0.4287840027         -1.2253
O127       O    0.5712159973    0.9804171455    0.5195828545         -1.2192
O128       O    0.4804171455    0.9287840027    0.4804171455         -1.2267
O129       O    0.5712159973    1.0195828545    0.4804171455         -1.2206
O130       O    0.5195828545    0.9287840027    0.5195828545         -1.2253
O131       O    0.5195828545    0.9804171455    0.5712159973         -1.2244
O132       O    0.4804171455    1.0195828545    0.5712159973         -1.2223
C133       C    0.4148526079    1.0000000000    0.5000000000          0.2956
C134       C    0.5000000000    1.0000000000    0.4148526079          0.3005
C135       C    0.5000000000    1.0851473921    0.5000000000          0.2901
C136       C    0.5851473921    1.0000000000    0.5000000000          0.2939
C137       C    0.5000000000    0.9148526079    0.5000000000          0.3052
C138       C    0.5000000000    1.0000000000    0.5851473921          0.2957
Zn139     Zn    0.4733540091    0.5266459909   -0.0266459909          1.4972
Zn140     Zn    0.4733540091    0.4733540091    0.0266459909          1.4936
Zn141     Zn    0.5266459909    0.4733540091   -0.0266459909          1.4911
Zn142     Zn    0.5266459909    0.5266459909    0.0266459909          1.4948
O143       O    0.5000000000    0.5000000000    0.0000000000          -2.317
O144       O    0.4287840027    0.5195828545   -0.0195828545         -1.2233
O145       O    0.4804171455    0.4287840027    0.0195828545         -1.2215
O146       O    0.5195828545    0.4804171455   -0.0712159973         -1.2166
O147       O    0.4287840027    0.4804171455    0.0195828545         -1.2234
O148       O    0.4804171455    0.5195828545   -0.0712159973         -1.2194
O149       O    0.5195828545    0.4287840027   -0.0195828545         -1.2253
O150       O    0.5712159973    0.5195828545    0.0195828545         -1.2192
O151       O    0.4804171455    0.4804171455    0.0712159973         -1.2267
O152       O    0.5712159973    0.4804171455   -0.0195828545         -1.2206
O153       O    0.5195828545    0.5195828545    0.0712159973         -1.2253
O154       O    0.5195828545    0.5712159973    0.0195828545         -1.2244
O155       O    0.4804171455    0.5712159973   -0.0195828545         -1.2223
C156       C    0.4148526079    0.5000000000    0.0000000000          0.2956
C157       C    0.5000000000    0.4148526079    0.0000000000          0.3005
C158       C    0.5000000000    0.5000000000   -0.0851473921          0.2901
C159       C    0.5851473921    0.5000000000    0.0000000000          0.2939
C160       C    0.5000000000    0.5000000000    0.0851473921          0.3052
C161       C    0.5000000000    0.5851473921    0.0000000000          0.2957
Zn162     Zn    0.5266459909    0.4733540091    0.4733540091          1.4972
Zn163     Zn    0.4733540091    0.5266459909    0.4733540091          1.4936
Zn164     Zn    0.4733540091    0.4733540091    0.5266459909          1.4911
Zn165     Zn    0.5266459909    0.5266459909    0.5266459909          1.4948
O166       O    0.5000000000    0.5000000000    0.5000000000          -2.317
O167       O    0.5195828545    0.4804171455    0.4287840027         -1.2233
O168       O    0.4287840027    0.5195828545    0.4804171455         -1.2215
O169       O    0.4804171455    0.4287840027    0.5195828545         -1.2166
O170       O    0.4804171455    0.5195828545    0.4287840027         -1.2234
O171       O    0.5195828545    0.4287840027    0.4804171455         -1.2194
O172       O    0.4287840027    0.4804171455    0.5195828545         -1.2253
O173       O    0.5195828545    0.5195828545    0.5712159973         -1.2192
O174       O    0.4804171455    0.5712159973    0.4804171455         -1.2267
O175       O    0.4804171455    0.4804171455    0.5712159973         -1.2206
O176       O    0.5195828545    0.5712159973    0.5195828545         -1.2253
O177       O    0.5712159973    0.5195828545    0.5195828545         -1.2244
O178       O    0.5712159973    0.4804171455    0.4804171455         -1.2223
C179       C    0.5000000000    0.5000000000    0.4148526079          0.2956
C180       C    0.4148526079    0.5000000000    0.5000000000          0.3005
C181       C    0.5000000000    0.4148526079    0.5000000000          0.2901
C182       C    0.5000000000    0.5000000000    0.5851473921          0.2939
C183       C    0.5000000000    0.5851473921    0.5000000000          0.3052
C184       C    0.5851473921    0.5000000000    0.5000000000          0.2957
C806       C    0.5000000000    0.5000000000   -0.3782535837            0.52
C807       C    0.5024996901    0.4736415206   -0.3602616078         -0.4784
C808       C    0.5027306757    0.4750898774   -0.3286165754          0.5205
C809       C    0.5000059773    0.5028768056   -0.3134820808          0.5175
C810       C    0.4970162960    0.5289489089   -0.3312320898          0.5155
C811       C    0.4972121255    0.5280904661   -0.3629549096          0.5169
N812       N    0.5012423382    0.5050385729   -0.2828164662          0.5173
H813       H    0.5052332294    0.4532004695   -0.3151370436         -0.4778
H814       H    0.5048275362    0.4502349718   -0.3710104117         -0.4759
Cl815     Cl    0.4939906468    0.5646336385   -0.3815507270          0.5148
H816       H    0.4951186771    0.5518247803   -0.3193495723          0.5133
N817       N    0.5087360062    0.4892664279   -0.2576297378         -0.4772
C818       C    0.5022668433    0.5015959977   -0.2263070840           0.516
C819       C    0.5265980955    0.5074432885   -0.2058865914          -0.464
C820       C    0.5267072170    0.4962385070   -0.1715589194         -0.4652
H821       H    0.5508909978    0.5133168705   -0.2136082562         -0.4428
H822       H    0.5178025800    0.5191336547   -0.2377301743         -0.4703
O823       O    0.5118718287    0.5178933482   -0.1491724499          0.5211
C824       C    0.5062273726    0.4647704601   -0.1298670299          0.5157
C825       C    0.5094388033    0.4646977187   -0.1659219370          0.5199
H826       H    0.5230095179    0.4443427451   -0.1746074402          -0.468
H827       H    0.5286176162    0.4568553070   -0.1192874107         -0.4655
H828       H    0.4870769631    0.4492952441   -0.1216868346          0.4989
H829       H    0.4858806482    0.4647905095   -0.1768604795             0.5
H830       H    0.4743990580    0.5041223463   -0.1201042983          0.4878
C831       C    0.5000000000    0.5000000000   -0.1217464163          0.5099
H832       H    0.5514292216    0.4933687195   -0.1640315875         -0.4442
C779       C    0.5000000000    0.5000000000    0.1217464163            0.52
C780       C    0.4736408513    0.4975073769    0.1397383922         -0.4784
C781       C    0.4750891462    0.4972760029    0.1713834246          0.5205
C782       C    0.5028768039    0.4999932514    0.1865179192          0.5175
C783       C    0.5289497078    0.5029759425    0.1687679102          0.5155
C784       C    0.5280912125    0.5027803431    0.1370450904          0.5169
N785       N    0.5050382396    0.4987563110    0.2171835338          0.5173
H786       H    0.4531990681    0.4947793181    0.1848629564         -0.4778
H787       H    0.4502336793    0.4951858063    0.1289895883         -0.4759
Cl788     Cl    0.5646352473    0.5059920242    0.1184492730          0.5148
H789       H    0.5518260872    0.5048674281    0.1806504277          0.5133
N790       N    0.4892640861    0.4912668718    0.2423702622         -0.4772
C791       C    0.5015953899    0.4977327289    0.2736929160           0.516
C792       C    0.5074361571    0.4733999098    0.2941134086          -0.464
C793       C    0.4962313468    0.4732937924    0.3284410806         -0.4652
H794       H    0.5133032258    0.4491054336    0.2863917438         -0.4428
H795       H    0.5191288810    0.4821922907    0.2622698257         -0.4703
O796       O    0.5178901646    0.4881233744    0.3508275501          0.5211
C797       C    0.4647687918    0.4937820729    0.3701329701          0.5157
C798       C    0.4646951894    0.4905706618    0.3340780630          0.5199
H799       H    0.4443365780    0.4770054051    0.3253925598          -0.468
H800       H    0.4568476359    0.4713939523    0.3807125893         -0.4655
H801       H    0.4492987107    0.5129366308    0.3783131654          0.4989
H802       H    0.4647942963    0.5141287912    0.3231395205             0.5
H803       H    0.5041292099    0.5255998359    0.3798957017          0.4878
C804       C    0.5000000000    0.5000000000    0.3782535837          0.5099
H805       H    0.4933549312    0.4485725581    0.3359684125         -0.4442
C752       C    0.5000000000    0.8782535837    0.5000000000            0.52
C753       C    0.5051026765    0.8602616078    0.4740196116         -0.4784
C754       C    0.5051888145    0.8286165754    0.4754837401          0.5205
C755       C    0.4997205075    0.8134820808    0.5028632028          0.5175
C756       C    0.4941586724    0.8312320898    0.5285100107          0.5155
C757       C    0.4944387113    0.8629549096    0.5276752344          0.5169
N758       N    0.5007362742    0.7828164662    0.5051369758          0.5173
H759       H    0.5098509136    0.8151370436    0.4539506542         -0.4778
H760       H    0.5097414627    0.8710104117    0.4509595367         -0.4759
Cl761     Cl    0.4876072700    0.8815507270    0.5637184416          0.5148
H762       H    0.4900006448    0.8193495723    0.5510847146          0.5133
N763       N    0.5097578960    0.7576297378    0.4901861913         -0.4772
C764       C    0.5020973005    0.7263070840    0.5018130412           0.516
C765       C    0.5257283120    0.7058865914    0.5100456553          -0.464
C766       C    0.5269486475    0.6715589194    0.4989069921         -0.4652
H767       H    0.5493185543    0.7136082562    0.5183006257         -0.4428
H768       H    0.5158162661    0.7377301743    0.5208056320         -0.4703
O769       O    0.5100378455    0.6491724499    0.5189829893          0.5211
C770       C    0.5096921621    0.6298670299    0.4655621917          0.5157
C771       C    0.5128949632    0.6659219370    0.4658084514          0.5199
H772       H    0.5284183576    0.6746074402    0.4469004248          -0.468
H773       H    0.5327572701    0.6192874107    0.4599076847         -0.4655
H774       H    0.4921717226    0.6216868346    0.4482632120          0.4981
H775       H    0.4894438514    0.6768604795    0.4635633146             0.5
H776       H    0.4741163641    0.6201042983    0.5015618465          0.4878
C777       C    0.5000000000    0.6217464163    0.5000000000          0.5099
H778       H    0.5518334028    0.6640315875    0.4985043141         -0.4442
C725       C    0.5000000000    1.1217464163    0.5000000000            0.52
C726       C    0.4743421498    1.1397383922    0.5065339583         -0.4784
C727       C    0.4758088017    1.1713834246    0.5065388625          0.5205
C728       C    0.5028433250    1.1865179192    0.4995623370          0.5175
C729       C    0.5281426730    1.1687679102    0.4925884028          0.5155
C730       C    0.5273246904    1.1370450904    0.4929142520          0.5169
N731       N    0.5051698728    1.2171835338    0.5004505943          0.5173
H732       H    0.4545670213    1.1848629564    0.5123865730         -0.4778
H733       H    0.4515744334    1.1289895883    0.5124429754         -0.4759
Cl734     Cl    0.5629341491    1.1184492730    0.4840967794          0.5148
H735       H    0.5504523940    1.1806504277    0.4871862922          0.5133
N736       N    0.4907417721    1.2423702622    0.5102865247         -0.4772
C737       C    0.5019264320    1.2736929160    0.5019936517           0.516
C738       C    0.5114553848    1.2941134086    0.5251323574          -0.464
C739       C    0.5004014205    1.3284410806    0.5269678166         -0.4652
H740       H    0.5210044012    1.2863917438    0.5482291181         -0.4428
H741       H    0.5216497893    1.2622698257    0.5146395089         -0.4703
O742       O    0.5195098644    1.3508275501    0.5089709206          0.5211
C743       C    0.4661519375    1.3701329701    0.5115848743          0.5157
C744       C    0.4665752299    1.3340780630    0.5147691171          0.5199
H745       H    0.4485561116    1.3253925598    0.5313160389          -0.468
H746       H    0.4617837438    1.3807125893    0.5349277863         -0.4655
H747       H    0.4479090184    1.3783131654    0.4950495666          0.4989
H748       H    0.4630345268    1.3231395205    0.4914783742             0.5
H749       H    0.5001256918    1.3798957017    0.4740695898          0.4878
C750       C    0.5000000000    1.3782535837    0.5000000000          0.5099
H751       H    0.5013777872    1.3359684125    0.5518366706         -0.4442
C698       C    0.5000000000    0.6217464163    0.0000000000            0.52
C699       C    0.4913485449    0.6397383922    0.0250233933         -0.4784
C700       C    0.4921591316    0.6713834246    0.0238010835          0.5205
C701       C    0.5011979494    0.6865179192   -0.0026155235          0.5175
C702       C    0.5092847839    0.6687679102   -0.0275814177          0.5155
C703       C    0.5091071495    0.6370450904   -0.0267190261          0.5169
N704       N    0.5032191924    0.7171835338   -0.0040703097          0.5173
H705       H    0.4853628273    0.6848629564    0.0447586407         -0.4778
H706       H    0.4837643563    0.6289895883    0.0472891849         -0.4759
Cl707     Cl    0.5213235670    0.6184492730   -0.0613100729          0.5148
H708       H    0.5170405160    0.6806504277   -0.0491859328          0.5133
N709       N    0.5035007527    0.7423702622    0.0133892533         -0.4772
C710       C    0.5027244948    0.7736929160   -0.0005127531           0.516
C711       C    0.5272907016    0.7941134086    0.0042519217          -0.464
C712       C    0.5227453363    0.8284410806    0.0144939279         -0.4652
H713       H    0.5518329069    0.7863917438    0.0089767736         -0.4428
H714       H    0.5241324089    0.7622698257   -0.0100327184         -0.4703
O715       O    0.5182210632    0.8508275501   -0.0113624416          0.5211
C716       C    0.4910635935    0.8701329701    0.0346416121          0.5157
C717       C    0.4939559631    0.8340780630    0.0360390301          0.5199
H718       H    0.4978681639    0.8253925598    0.0601882315          -0.468
H719       H    0.5081585228    0.8807125893    0.0511260305         -0.4655
H720       H    0.4672211259    0.8783131654    0.0407863037          0.4989
H721       H    0.4725556202    0.8231395205    0.0261891262             0.5
H722       H    0.4784109985    0.8798957017   -0.0143637386          0.4878
C723       C    0.5000000000    0.8782535837    0.0000000000          0.5099
H724       H    0.5440536895    0.8359684125    0.0273534488         -0.4442
C671       C    0.5000000000    1.1217464163    0.0000000000            0.52
C672       C    0.5021704351    1.1397383922   -0.0263876316         -0.4784
C673       C    0.5016885636    1.1713834246   -0.0250023909          0.5205
C674       C    0.4994886551    1.1865179192    0.0028310020          0.5175
C675       C    0.4978509054    1.1687679102    0.0290228050          0.5155
C676       C    0.4978089525    1.1370450904    0.0281433090          0.5169
N677       N    0.4978917009    1.2171835338    0.0047419084          0.5173
H678       H    0.5030709547    1.1848629564   -0.0469909777         -0.4778
H679       H    0.5039913807    1.1289895883   -0.0498390612         -0.4759
Cl680     Cl    0.4945596061    1.1184492730    0.0646840140          0.5148
H681       H    0.4956996666    1.1806504277    0.0518762210          0.5133
N682       N    0.4932858069    1.2423702622   -0.0121015282         -0.4772
C683       C    0.4974880010    1.2736929160    0.0011728804           0.516
C684       C    0.4725078796    1.2941134086    0.0026541567          -0.464
C685       C    0.4743691586    1.3284410806   -0.0083954893         -0.4652
H686       H    0.4475608921    1.2863917438    0.0041680533         -0.4428
H687       H    0.4791125456    1.2622698257    0.0157080504         -0.4703
O688       O    0.4851689590    1.3508275501    0.0155290839          0.5211
C689       C    0.5000594061    1.3701329701   -0.0357756498          0.5157
C690       C    0.4969107151    1.3340780630   -0.0364115146          0.5199
H691       H    0.4871275252    1.3253925598   -0.0588342361          -0.468
H692       H    0.4794081873    1.3807125893   -0.0475016815         -0.4655
H693       H    0.5216309272    1.3783131654   -0.0476453581          0.4989
H694       H    0.5200860818    1.3231395205   -0.0321809514             0.5
H695       H    0.5244783736    1.3798957017    0.0085563542          0.4878
C696       C    0.5000000000    1.3782535837    0.0000000000          0.5099
H697       H    0.4505359720    1.3359684125   -0.0155643393         -0.4442
C644       C    0.5000000000    1.0000000000   -0.3782535837            0.52
C645       C    0.4975003099    1.0263584794   -0.3602616078         -0.4784
C646       C    0.4972693243    1.0249101226   -0.3286165754          0.5205
C647       C    0.4999940227    0.9971231944   -0.3134820808          0.5175
C648       C    0.5029837040    0.9710510911   -0.3312320898          0.5155
C649       C    0.5027878745    0.9719095339   -0.3629549096          0.5169
N650       N    0.4987576618    0.9949614271   -0.2828164662          0.5173
H651       H    0.4947667706    1.0467995305   -0.3151370436         -0.4778
H652       H    0.4951724638    1.0497650282   -0.3710104117         -0.4759
Cl653     Cl    0.5060093532    0.9353663615   -0.3815507270          0.5148
H654       H    0.5048813229    0.9481752197   -0.3193495723          0.5133
N655       N    0.4912639938    1.0107335721   -0.2576297378         -0.4772
C656       C    0.4977331567    0.9984040023   -0.2263070840           0.516
C657       C    0.4734019045    0.9925567115   -0.2058865914          -0.464
C658       C    0.4732927830    1.0037614930   -0.1715589194         -0.4652
H659       H    0.4491090022    0.9866831295   -0.2136082562         -0.4428
H660       H    0.4821974200    0.9808663453   -0.2377301743         -0.4703
O661       O    0.4881281713    0.9821066518   -0.1491724499          0.5211
C662       C    0.4937726274    1.0352295399   -0.1298670299          0.5157
C663       C    0.4905611967    1.0353022813   -0.1659219370          0.5199
H664       H    0.4769904821    1.0556572549   -0.1746074402          -0.468
H665       H    0.4713823838    1.0431446930   -0.1192874107         -0.4655
H666       H    0.5129230369    1.0507047559   -0.1216868346          0.4989
H667       H    0.5141193518    1.0352094905   -0.1768604795             0.5
H668       H    0.5256009420    0.9958776537   -0.1201042983          0.4878
C669       C    0.5000000000    1.0000000000   -0.1217464163          0.5099
H670       H    0.4485707784    1.0066312805   -0.1640315875         -0.4442
C617       C    0.5000000000    1.0000000000    0.1217464163            0.52
C618       C    0.5263591487    1.0024926231    0.1397383922         -0.4784
C619       C    0.5249108538    1.0027239971    0.1713834246          0.5205
C620       C    0.4971231961    1.0000067486    0.1865179192          0.5175
C621       C    0.4710502922    0.9970240575    0.1687679102          0.5155
C622       C    0.4719087875    0.9972196569    0.1370450904          0.5169
N623       N    0.4949617604    1.0012436890    0.2171835338          0.5173
H624       H    0.5468009319    1.0052206819    0.1848629564         -0.4778
H625       H    0.5497663207    1.0048141937    0.1289895883         -0.4759
Cl626     Cl    0.4353647527    0.9940079758    0.1184492730          0.5148
H627       H    0.4481739128    0.9951325719    0.1806504277          0.5133
N628       N    0.5107359139    1.0087331282    0.2423702622         -0.4772
C629       C    0.4984046101    1.0022672711    0.2736929160           0.516
C630       C    0.4925638429    1.0266000902    0.2941134086          -0.464
C631       C    0.5037686532    1.0267062076    0.3284410806         -0.4652
H632       H    0.4866967742    1.0508945664    0.2863917438         -0.4428
H633       H    0.4808711190    1.0178077093    0.2622698257         -0.4703
O634       O    0.4821098354    1.0118766256    0.3508275501          0.5211
C635       C    0.5352312082    1.0062179271    0.3701329701          0.5157
C636       C    0.5353048106    1.0094293382    0.3340780630          0.5199
H637       H    0.5556634220    1.0229945949    0.3253925598          -0.468
H638       H    0.5431523641    1.0286060477    0.3807125893         -0.4655
H639       H    0.5507012893    0.9870633692    0.3783131654          0.4989
H640       H    0.5352057037    0.9858712088    0.3231395205             0.5
H641       H    0.4958707901    0.9744001641    0.3798957017          0.4878
C642       C    0.5000000000    1.0000000000    0.3782535837          0.5099
H643       H    0.5066450688    1.0514274419    0.3359684125         -0.4442
C590       C    0.8782535837    0.5000000000    0.5000000000            0.52
C591       C    0.8602616078    0.4840880023    0.5211619049         -0.4784
C592       C    0.8286165754    0.4852345279    0.5202472623          0.5205
C593       C    0.8134820808    0.5019426789    0.4978781978          0.5175
C594       C    0.8312320898    0.5172996479    0.4765977779          0.5155
C595       C    0.8629549096    0.5168659770    0.4773640695          0.5169
N596       N    0.7828164662    0.5043127952    0.4971137536          0.5173
H597       H    0.8151370436    0.4723357052    0.5381086544         -0.4778
H598       H    0.8710104117    0.4700378976    0.5400266855         -0.4759
Cl599     Cl    0.8815507270    0.5391065928    0.4481898277          0.5148
H600       H    0.8193495723    0.5313101247    0.4584150116          0.5133
N601       N    0.7576297378    0.4992237169    0.5138175526         -0.4772
C602       C    0.7263070840    0.5027504062    0.5003479266           0.516
C603       C    0.7058865914    0.5246697442    0.5124203441          -0.464
C604       C    0.6715589194    0.5172011032    0.5207736930         -0.4652
H605       H    0.7136082562    0.5465784572    0.5244474953         -0.4428
H606       H    0.7377301743    0.5260466974    0.4978556693         -0.4703
O607       O    0.6491724499    0.5208284772    0.4947763268          0.5211
C608       C    0.6298670299    0.4808656705    0.5302287626          0.5157
C609       C    0.6659219370    0.4831897630    0.5324462325          0.5199
H610       H    0.6746074402    0.4795036442    0.5566309751          -0.468
H611       H    0.6192874107    0.4920781762    0.5511632407         -0.4655
H612       H    0.6216868346    0.4562878792    0.5287615655          0.4989
H613       H    0.6768604795    0.4658438682    0.5165052408             0.5
H614       H    0.6201042983    0.4838595108    0.4797050110          0.4878
C615       C    0.6217464163    0.5000000000    0.5000000000          0.5099
H616       H    0.6640315875    0.5335360149    0.5395509092         -0.4442
C563       C    1.1217464163    0.5000000000    0.5000000000            0.52
C564       C    1.1397383922    0.4788380951    0.5159119977         -0.4784
C565       C    1.1713834246    0.4797527377    0.5147654721          0.5205
C566       C    1.1865179192    0.5021218022    0.4980573211          0.5175
C567       C    1.1687679102    0.5234022221    0.4827003521          0.5155
C568       C    1.1370450904    0.5226359305    0.4831340230          0.5169
N569       N    1.2171835338    0.5028862464    0.4956872048          0.5173
H570       H    1.1848629564    0.4618913456    0.5276642948         -0.4778
H571       H    1.1289895883    0.4599733145    0.5299621024         -0.4759
Cl572     Cl    1.1184492730    0.5518101723    0.4608934072          0.5148
H573       H    1.1806504277    0.5415849884    0.4686898753          0.5133
N574       N    1.2423702622    0.4861824474    0.5007762831         -0.4772
C575       C    1.2736929160    0.4996520734    0.4972495938           0.516
C576       C    1.2941134086    0.4875796559    0.4753302558          -0.464
C577       C    1.3284410806    0.4792263070    0.4827988968         -0.4652
H578       H    1.2863917438    0.4755525047    0.4534215428         -0.4428
H579       H    1.2622698257    0.5021443307    0.4739533026         -0.4703
O580       O    1.3508275501    0.5052236732    0.4791715228          0.5211
C581       C    1.3701329701    0.4697712374    0.5191343295          0.5157
C582       C    1.3340780630    0.4675537675    0.5168102370          0.5199
H583       H    1.3253925598    0.4433690249    0.5204963558          -0.468
H584       H    1.3807125893    0.4488367593    0.5079218238         -0.4655
H585       H    1.3783131654    0.4712384345    0.5437121208          0.4989
H586       H    1.3231395205    0.4834947592    0.5341561318             0.5
H587       H    1.3798957017    0.5202949890    0.5161404892          0.4878
C588       C    1.3782535837    0.5000000000    0.5000000000          0.5099
H589       H    1.3359684125    0.4604490908    0.4664639851         -0.4442
C536       C    0.6217464163    0.5000000000    0.0000000000            0.52
C537       C    0.6397383922    0.5154279988   -0.0215173126         -0.4784
C538       C    0.6713834246    0.5148985260   -0.0201495587          0.5205
C539       C    0.6865179192    0.4985570647    0.0024887716          0.5175
C540       C    0.6687679102    0.4828498324    0.0235119877          0.5155
C541       C    0.6370450904    0.4834511579    0.0228688075          0.5169
N542       N    0.7171835338    0.4985371970    0.0049790388          0.5173
H543       H    0.6848629564    0.5280793988   -0.0378038372         -0.4778
H544       H    0.6289895883    0.5292215964   -0.0405704503         -0.4759
Cl545     Cl    0.6184492730    0.4622728053    0.0528230852          0.5148
H546       H    0.6806504277    0.4696951089    0.0423231467          0.5133
N547       N    0.7423702622    0.5129514924   -0.0048771117         -0.4772
C548       C    0.7736929160    0.5011553336    0.0025201174           0.516
C549       C    0.7941134086    0.5192358944    0.0198202320          -0.464
C550       C    0.8284410806    0.5249703435    0.0101934398         -0.4652
H551       H    0.7863917438    0.5372700839    0.0371237598         -0.4428
H552       H    0.7622698257    0.5057513595    0.0254941260         -0.4703
O553       O    0.8508275501    0.5012511066    0.0214370464          0.5211
C554       C    0.8701329701    0.5231144125   -0.0273061272          0.5157
C555       C    0.8340780630    0.5259259309   -0.0257524403          0.5199
H556       H    0.8253925598    0.5478980851   -0.0365094698          -0.468
H557       H    0.8807125893    0.5464454183   -0.0228747812         -0.4655
H558       H    0.8783131654    0.5143568819   -0.0503175625          0.4989
H559       H    0.8231395205    0.5055233165   -0.0375307513             0.5
H560       H    0.8798957017    0.4758039130   -0.0093247705          0.4878
C561       C    0.8782535837    0.5000000000    0.0000000000          0.5099
H562       H    0.8359684125    0.5477764651    0.0201580777         -0.4442
C509       C    1.1217464163    0.5000000000    0.0000000000            0.52
C510       C    1.1397383922    0.4750053835    0.0087342450         -0.4784
C511       C    1.1713834246    0.4762250032    0.0079196163          0.5205
C512       C    1.1865179192    0.5026115435   -0.0012066013          0.5175
C513       C    1.1687679102    0.5275505304   -0.0093760383          0.5155
C514       C    1.1370450904    0.5266887315   -0.0091955500          0.5169
N515       N    1.2171835338    0.5040596306   -0.0032326491          0.5173
H516       H    1.1848629564    0.4552900593    0.0147852610         -0.4778
H517       H    1.1289895883    0.4527648205    0.0163921004         -0.4759
Cl518     Cl    1.1184492730    0.5612391477   -0.0215264104          0.5148
H519       H    1.1806504277    0.5491292525   -0.0172032473          0.5133
N520       N    1.2423702622    0.4865992312   -0.0034564098         -0.4772
C521       C    1.2736929160    0.5005037312   -0.0027261772           0.516
C522       C    1.2941134086    0.4956577587   -0.0272764765          -0.464
C523       C    1.3284410806    0.4854308556   -0.0226972311         -0.4652
H524       H    1.2863917438    0.4908516884   -0.0518029063         -0.4428
H525       H    1.2622698257    0.5099527757   -0.0241654889         -0.4703
O526       O    1.3508275501    0.5113020605   -0.0182585775          0.5211
C527       C    1.3701329701    0.4653881607    0.0090510348          0.5157
C528       C    1.3340780630    0.4639811755    0.0061633071          0.5199
H529       H    1.3253925598    0.4398191555    0.0023310710          -0.468
H530       H    1.3807125893    0.4488472417   -0.0079892309         -0.4655
H531       H    1.3783131654    0.4593224306    0.0329137131          0.4989
H532       H    1.3231395205    0.4739018689    0.0275309257             0.5
H533       H    1.3798957017    0.5144351279    0.0215413336          0.4878
C534       C    1.3782535837    0.5000000000    0.0000000000          0.5099
H535       H    1.3359684125    0.4725008662   -0.0439628975         -0.4442
C482       C    1.0000000000    0.5000000000   -0.1217464163            0.52
C483       C    1.0263591487    0.4975073769   -0.1397383922         -0.4784
C484       C    1.0249108538    0.4972760029   -0.1713834246          0.5205
C485       C    0.9971231961    0.4999932514   -0.1865179192          0.5175
C486       C    0.9710502922    0.5029759425   -0.1687679102          0.5155
C487       C    0.9719087875    0.5027803431   -0.1370450904          0.5169
N488       N    0.9949617604    0.4987563110   -0.2171835338          0.5173
H489       H    1.0468009319    0.4947793181   -0.1848629564         -0.4778
H490       H    1.0497663207    0.4951858063   -0.1289895883         -0.4759
Cl491     Cl    0.9353647527    0.5059920242   -0.1184492730          0.5148
H492       H    0.9481739128    0.5048674281   -0.1806504277          0.5133
N493       N    1.0107359139    0.4912668718   -0.2423702622         -0.4772
C494       C    0.9984046101    0.4977327289   -0.2736929160           0.516
C495       C    0.9925638429    0.4733999098   -0.2941134086          -0.464
C496       C    1.0037686532    0.4732937924   -0.3284410806         -0.4652
H497       H    0.9866967742    0.4491054336   -0.2863917438         -0.4428
H498       H    0.9808711190    0.4821922907   -0.2622698257         -0.4703
O499       O    0.9821098354    0.4881233744   -0.3508275501          0.5211
C500       C    1.0352312082    0.4937820729   -0.3701329701          0.5157
C501       C    1.0353048106    0.4905706618   -0.3340780630          0.5199
H502       H    1.0556634220    0.4770054051   -0.3253925598          -0.468
H503       H    1.0431523641    0.4713939523   -0.3807125893         -0.4655
H504       H    1.0507012893    0.5129366308   -0.3783131654          0.4989
H505       H    1.0352057037    0.5141287912   -0.3231395205             0.5
H506       H    0.9958707901    0.5255998359   -0.3798957017          0.4878
C507       C    1.0000000000    0.5000000000   -0.3782535837          0.5099
H508       H    1.0066450688    0.4485725581   -0.3359684125         -0.4442
C455       C    1.0000000000    0.5000000000    0.1217464163            0.52
C456       C    0.9736408513    0.4975073769    0.1397383922         -0.4784
C457       C    0.9750891462    0.4972760029    0.1713834246          0.5205
C458       C    1.0028768039    0.4999932514    0.1865179192          0.5175
C459       C    1.0289497078    0.5029759425    0.1687679102          0.5155
C460       C    1.0280912125    0.5027803431    0.1370450904          0.5169
N461       N    1.0050382396    0.4987563110    0.2171835338          0.5173
H462       H    0.9531990681    0.4947793181    0.1848629564         -0.4778
H463       H    0.9502336793    0.4951858063    0.1289895883         -0.4759
Cl464     Cl    1.0646352473    0.5059920242    0.1184492730          0.5148
H465       H    1.0518260872    0.5048674281    0.1806504277          0.5133
N466       N    0.9892640861    0.4912668718    0.2423702622         -0.4772
C467       C    1.0015953899    0.4977327289    0.2736929160           0.516
C468       C    1.0074361571    0.4733999098    0.2941134086          -0.464
C469       C    0.9962313468    0.4732937924    0.3284410806         -0.4652
H470       H    1.0133032258    0.4491054336    0.2863917438         -0.4428
H471       H    1.0191288810    0.4821922907    0.2622698257         -0.4703
O472       O    1.0178901646    0.4881233744    0.3508275501          0.5211
C473       C    0.9647687918    0.4937820729    0.3701329701          0.5157
C474       C    0.9646951894    0.4905706618    0.3340780630          0.5199
H475       H    0.9443365780    0.4770054051    0.3253925598          -0.468
H476       H    0.9568476359    0.4713939523    0.3807125893         -0.4655
H477       H    0.9492987107    0.5129366308    0.3783131654          0.4989
H478       H    0.9647942963    0.5141287912    0.3231395205             0.5
H479       H    1.0041292099    0.5255998359    0.3798957017          0.4878
C480       C    1.0000000000    0.5000000000    0.3782535837          0.5099
H481       H    0.9933549312    0.4485725581    0.3359684125         -0.4442
C428       C    1.0000000000   -0.1217464163    0.5000000000            0.52
C429       C    1.0263591487   -0.1397383922    0.5024926231         -0.4784
C430       C    1.0249108538   -0.1713834246    0.5027239971          0.5205
C431       C    0.9971231961   -0.1865179192    0.5000067486          0.5175
C432       C    0.9710502922   -0.1687679102    0.4970240575          0.5155
C433       C    0.9719087875   -0.1370450904    0.4972196569          0.5169
N434       N    0.9949617604   -0.2171835338    0.5012436890          0.5173
H435       H    1.0468009319   -0.1848629564    0.5052206819         -0.4778
H436       H    1.0497663207   -0.1289895883    0.5048141937         -0.4759
Cl437     Cl    0.9353647527   -0.1184492730    0.4940079758          0.5148
H438       H    0.9481739128   -0.1806504277    0.4951325719          0.5133
N439       N    1.0107359139   -0.2423702622    0.5087331282         -0.4772
C440       C    0.9984046101   -0.2736929160    0.5022672711           0.516
C441       C    0.9925638429   -0.2941134086    0.5266000902          -0.464
C442       C    1.0037686532   -0.3284410806    0.5267062076         -0.4652
H443       H    0.9866967742   -0.2863917438    0.5508945664         -0.4428
H444       H    0.9808711190   -0.2622698257    0.5178077093         -0.4703
O445       O    0.9821098354   -0.3508275501    0.5118766256          0.5211
C446       C    1.0352312082   -0.3701329701    0.5062179271          0.5157
C447       C    1.0353048106   -0.3340780630    0.5094293382          0.5199
H448       H    1.0556634220   -0.3253925598    0.5229945949          -0.468
H449       H    1.0431523641   -0.3807125893    0.5286060477         -0.4655
H450       H    1.0507012893   -0.3783131654    0.4870633692          0.4989
H451       H    1.0352057037   -0.3231395205    0.4858712088             0.5
H452       H    0.9958707901   -0.3798957017    0.4744001641          0.4878
C453       C    1.0000000000   -0.3782535837    0.5000000000          0.5099
H454       H    1.0066450688   -0.3359684125    0.5514274419         -0.4442
C401       C    1.0000000000    0.3782535837    0.5000000000            0.52
C402       C    1.0009648392    0.3602616078    0.4735408433         -0.4784
C403       C    1.0012795409    0.3286165754    0.4749733428          0.5205
C404       C    1.0001730229    0.3134820808    0.5028716040          0.5175
C405       C    0.9987023895    0.3312320898    0.5290733215          0.5155
C406       C    0.9988480389    0.3629549096    0.5282049555          0.5169
N407       N    1.0015328309    0.2828164662    0.5049579280          0.5173
H408       H    1.0025067571    0.3151370436    0.4529755498         -0.4778
H409       H    1.0019295426    0.3710104117    0.4500386149         -0.4759
Cl410     Cl    0.9977540526    0.3815507270    0.5648735329          0.5148
H411       H    0.9981363710    0.3193495723    0.5520207848          0.5133
N412       N    1.0080979676    0.2576297378    0.4887772421         -0.4772
C413       C    1.0023556974    0.2263070840    0.5014616693           0.516
C414       C    1.0269854424    0.2058865914    0.5058861810          -0.464
C415       C    1.0264437199    0.1715589194    0.4946939706         -0.4652
H416       H    1.0515784290    0.2136082562    0.5103391665         -0.4428
H417       H    1.0188836269    0.2377301743    0.5180675741         -0.4703
O418       O    1.0128908591    0.1491724499    0.5171737584          0.5211
C419       C    1.0041710902    0.1298670299    0.4644682866          0.5157
C420       C    1.0073728777    0.1659219370    0.4642091807          0.5199
H421       H    1.0197386819    0.1746074402    0.4431005064          -0.468
H422       H    1.0260639191    0.1192874107    0.4552662922         -0.4655
H423       H    0.9841543533    0.1216868346    0.4501312459          0.4989
H424       H    0.9838598648    0.1768604795    0.4656698333             0.5
H425       H    0.9746816430    0.1201042983    0.5056020325          0.4878
C426       C    1.0000000000    0.1217464163    0.5000000000          0.5099
H427       H    1.0509573586    0.1640315875    0.4903934229         -0.4442
C374       C    0.6217464163   -0.0000000000    0.5000000000            0.52
C375       C    0.6397383922   -0.0210904353    0.5160066057         -0.4784
C376       C    0.6713834246   -0.0201809362    0.5148559957          0.5205
C377       C    0.6865179192    0.0021130812    0.4980478386          0.5175
C378       C    0.6687679102    0.0233245159    0.4825957253          0.5155
C379       C    0.6370450904    0.0225601740    0.4830328235          0.5169
N380       N    0.7171835338    0.0028669038    0.4956743228          0.5173
H381       H    0.6848629564   -0.0379843856    0.5278346762         -0.4778
H382       H    0.6289895883   -0.0398921074    0.5301410502         -0.4759
Cl383     Cl    0.6184492730    0.0516345250    0.4606617822          0.5148
H384       H    0.6806504277    0.0414443579    0.4685039627          0.5133
N385       N    0.7423702622   -0.0138139377    0.5008381533         -0.4772
C386       C    0.7736929160   -0.0003602401    0.4972511794           0.516
C387       C    0.7941134086   -0.0125306961    0.4753861241          -0.464
C388       C    0.8284410806   -0.0208505149    0.4828920984         -0.4652
H389       H    0.7863917438   -0.0246558385    0.4535314910         -0.4428
H390       H    0.7622698257    0.0020276665    0.4739439610         -0.4703
O391       O    0.8508275501    0.0051303464    0.4791483389          0.5211
C392       C    0.8701329701   -0.0301427718    0.5192695085          0.5157
C393       C    0.8340780630   -0.0323706273    0.5169553697          0.5199
H394       H    0.8253925598   -0.0565386201    0.5207497560          -0.468
H395       H    0.8807125893   -0.0511272520    0.5081508645         -0.4655
H396       H    0.8783131654   -0.0285655248    0.5438404830          0.4989
H397       H    0.8231395205   -0.0163521167    0.5342297034             0.5
H398       H    0.8798957017    0.0203670661    0.5160494420          0.4878
C399       C    0.8782535837   -0.0000000000    0.5000000000          0.5099
H400       H    0.8359684125   -0.0397006942    0.4666414389         -0.4442
C347       C    1.1217464163   -0.0000000000    0.5000000000            0.52
C348       C    1.1397383922   -0.0237976444    0.4883943975         -0.4784
C349       C    1.1713834246   -0.0223605239    0.4886872742          0.5205
C350       C    1.1865179192    0.0026953139    0.5010056486          0.5175
C351       C    1.1687679102    0.0260526183    0.5129693059          0.5155
C352       C    1.1370450904    0.0253177971    0.5124842172          0.5169
N353       N    1.2171835338    0.0051537220    0.5006080868          0.5173
H354       H    1.1848629564   -0.0419732988    0.4786499429         -0.4778
H355       H    1.1289895883   -0.0448921513    0.4779873243         -0.4759
Cl356     Cl    1.1184492730    0.0583964444    0.5283456317          0.5148
H357       H    1.1806504277    0.0468015467    0.5227870665          0.5133
N358       N    1.2423702622   -0.0069777243    0.4880484839         -0.4772
C359       C    1.2736929160    0.0022909766    0.4984388421           0.516
C360       C    1.2941134086    0.0163179380    0.4777157874          -0.464
C361       C    1.3284410806    0.0058665844    0.4736749652         -0.4652
H362       H    1.2863917438    0.0303560321    0.4570378769         -0.4428
H363       H    1.2622698257    0.0241704769    0.4900593439         -0.4703
O364       O    1.3508275501    0.0209245681    0.4951756167          0.5211
C365       C    1.3701329701   -0.0307922274    0.4817862859          0.5157
C366       C    1.3340780630   -0.0297314560    0.4787542334          0.5199
H367       H    1.3253925598   -0.0440170812    0.4588944711          -0.468
H368       H    1.3807125893   -0.0303317108    0.4580426429         -0.4655
H369       H    1.3783131654   -0.0520115251    0.4942747566          0.4989
H370       H    1.3231395205   -0.0379256652    0.5008415650             0.5
H371       H    1.3798957017   -0.0051398863    0.5254162062          0.4878
C372       C    1.3782535837   -0.0000000000    0.5000000000          0.5099
H373       H    1.3359684125    0.0118701323    0.4495218990         -0.4442
C320       C    0.0000000000   -0.1217464163    0.0000000000            0.52
C321       C    0.0264263021   -0.1397383922   -0.0016335373         -0.4784
C322       C    0.0250315515   -0.1713834246   -0.0011799268          0.5205
C323       C   -0.0028408124   -0.1865179192    0.0004536862          0.5175
C324       C   -0.0290604971   -0.1687679102    0.0015586293          0.5155
C325       C   -0.0281820358   -0.1370450904    0.0016184533          0.5169
N326       N   -0.0047837892   -0.2171835338    0.0020114624          0.5173
H327       H    0.0470436974   -0.1848629564   -0.0021150137         -0.4778
H328       H    0.0499099041   -0.1289895883   -0.0029773492         -0.4759
Cl329     Cl   -0.0647812468   -0.1184492730    0.0041242714          0.5148
H330       H   -0.0519529238   -0.1806504277    0.0032448234          0.5133
N331       N    0.0119625306   -0.2423702622    0.0069588244         -0.4772
C332       C   -0.0012237059   -0.2736929160    0.0024876357           0.516
C333       C   -0.0032125111   -0.2941134086    0.0274324808          -0.464
C334       C    0.0078726903   -0.3284410806    0.0257962210         -0.4652
H335       H   -0.0052332563   -0.2863917438    0.0523435357         -0.4428
H336       H   -0.0161294370   -0.2622698257    0.0205637997         -0.4703
O337       O   -0.0158273832   -0.3508275501    0.0145122764          0.5211
C338       C    0.0357694639   -0.3701329701    0.0006679097          0.5157
C339       C    0.0363411857   -0.3340780630    0.0038288768          0.5199
H340       H    0.0585603851   -0.3253925598    0.0140658891          -0.468
H341       H    0.0470732417   -0.3807125893    0.0215532458         -0.4655
H342       H    0.0480752588   -0.3783131654   -0.0206578472          0.4989
H343       H    0.0325826420   -0.3231395205   -0.0194277058             0.5
H344       H   -0.0080569511   -0.3798957017   -0.0246472617          0.4878
C345       C   -0.0000000000   -0.3782535837    0.0000000000          0.5099
H346       H    0.0145555403   -0.3359684125    0.0497702217         -0.4442
C293       C   -0.0000000000    0.1217464163    0.0000000000            0.52
C294       C    0.0131465090    0.1397383922   -0.0229823234         -0.4784
C295       C    0.0121230982    0.1713834246   -0.0219317415          0.5205
C296       C   -0.0016626817    0.1865179192    0.0023476660          0.5175
C297       C   -0.0142437104    0.1687679102    0.0253783083          0.5155
C298       C   -0.0139090660    0.1370450904    0.0245638843          0.5169
N299       N   -0.0039188618    0.2171835338    0.0034019322          0.5173
H300       H    0.0226919064    0.1848629564   -0.0412633024         -0.4778
H301       H    0.0247323716    0.1289895883   -0.0434531119         -0.4759
Cl302     Cl   -0.0323347448    0.1184492730    0.0562857338          0.5148
H303       H   -0.0258753726    0.1806504277    0.0451674691          0.5133
N304       N   -0.0009542656    0.2423702622   -0.0138064026         -0.4772
C305       C   -0.0027723246    0.2736929160   -0.0000019460           0.516
C306       C   -0.0260269660    0.2941134086   -0.0092443643          -0.464
C307       C   -0.0196592460    0.3284410806   -0.0184645150         -0.4652
H308       H   -0.0492654160    0.2863917438   -0.0184431963         -0.4428
H309       H   -0.0255754306    0.2622698257    0.0053782849         -0.4703
O310       O   -0.0200136964    0.3508275501    0.0077822992          0.5211
C311       C    0.0152120711    0.3701329701   -0.0323804500          0.5157
C312       C    0.0126294016    0.3340780630   -0.0342905277          0.5199
H313       H    0.0132683592    0.3253925598   -0.0587462219          -0.468
H314       H    0.0014745341    0.3807125893   -0.0517518912         -0.4655
H315       H    0.0397808118    0.3783131654   -0.0339921193          0.4989
H316       H    0.0318291690    0.3231395205   -0.0206389998             0.5
H317       H    0.0185471805    0.3798957017    0.0181219222          0.4878
C318       C   -0.0000000000    0.3782535837    0.0000000000          0.5099
H319       H   -0.0382099056    0.3359684125   -0.0350562666         -0.4442
C266       C   -0.1217464163   -0.0000000000    0.0000000000            0.52
C267       C   -0.1397383922    0.0260530364   -0.0047177521         -0.4784
C268       C   -0.1713834246    0.0245903425   -0.0048255417          0.5205
C269       C   -0.1865179192   -0.0028670244    0.0002371023          0.5175
C270       C   -0.1687679102   -0.0285933097    0.0054188980          0.5155
C271       C   -0.1370450904   -0.0277544818    0.0051512398          0.5169
N272       N   -0.2171835338   -0.0051255208   -0.0008121924          0.5173
H273       H   -0.1848629564    0.0461900449   -0.0091685600         -0.4778
H274       H   -0.1289895883    0.0491792158   -0.0090148692         -0.4759
Cl275     Cl   -0.1184492730   -0.0638948117    0.0114486935          0.5148
H276       H   -0.1806504277   -0.0512270588    0.0092424898          0.5133
N277       N   -0.2423702622    0.0099570974   -0.0096116380         -0.4772
C278       C   -0.2736929160   -0.0017818143   -0.0021238939           0.516
C279       C   -0.2941134086   -0.0096639192   -0.0258741163          -0.464
C280       C   -0.3284410806    0.0014915791   -0.0269295277         -0.4652
H281       H   -0.2863917438   -0.0175689812   -0.0495839047         -0.4428
H282       H   -0.2622698257   -0.0205693618   -0.0161223433         -0.4703
O283       O   -0.3508275501   -0.0188324072   -0.0103175900          0.5211
C284       C   -0.3701329701    0.0345774297   -0.0091816124          0.5157
C285       C   -0.3340780630    0.0343785806   -0.0123877063          0.5199
H286       H   -0.3253925598    0.0535141982   -0.0276296676          -0.468
H287       H   -0.3807125893    0.0405725537   -0.0321605407         -0.4655
H288       H   -0.3783131654    0.0516153105    0.0085928387          0.4989
H289       H   -0.3231395205    0.0362765250    0.0110940545             0.5
H290       H   -0.3798957017   -0.0019446101    0.0258576964          0.4878
C291       C   -0.3782535837   -0.0000000000    0.0000000000          0.5099
H292       H   -0.3359684125    0.0022623697   -0.0518056020         -0.4442
C239       C    0.1217464163   -0.0000000000    0.0000000000            0.52
C240       C    0.1397383922    0.0238755092   -0.0114445597         -0.4784
C241       C    0.1713834246    0.0227534498   -0.0105000627          0.5205
C242       C    0.1865179192   -0.0024621031    0.0014879834          0.5175
C243       C    0.1687679102   -0.0263447797    0.0123650475          0.5155
C244       C    0.1370450904   -0.0255082242    0.0120903693          0.5169
N245       N    0.2171835338   -0.0036772713    0.0036617341          0.5173
H246       H    0.1848629564    0.0428008110   -0.0196385672         -0.4778
H247       H    0.1289895883    0.0451328807   -0.0215147907         -0.4759
Cl248     Cl    0.1184492730   -0.0584832206    0.0281661581          0.5148
H249       H    0.1806504277   -0.0469256422    0.0225304078          0.5133
N250       N    0.2423702622    0.0137007927    0.0019533697         -0.4772
C251       C    0.2736929160   -0.0001991841    0.0027651606           0.516
C252       C    0.2941134086    0.0073318165    0.0266290386          -0.464
C253       C    0.3284410806    0.0169896333    0.0209469958         -0.4652
H254       H    0.2863917438    0.0148205201    0.0504736058         -0.4428
H255       H    0.2622698257   -0.0072195439    0.0251178579         -0.4703
O256       O    0.3508275501   -0.0092137341    0.0193963741          0.5211
C257       C    0.3701329701    0.0333987226   -0.0128228694          0.5157
C258       C    0.3340780630    0.0351164012   -0.0101084341          0.5199
H259       H    0.3253925598    0.0595540085   -0.0089715111          -0.468
H260       H    0.3807125893    0.0517224968    0.0022838164         -0.4655
H261       H    0.3783131654    0.0367885432   -0.0372099482          0.4989
H262       H    0.3231395205    0.0228937387   -0.0302479924             0.5
H263       H    0.3798957017   -0.0167286206   -0.0198130064          0.4878
C264       C    0.3782535837   -0.0000000000    0.0000000000          0.5099
H265       H    0.3359684125    0.0321918629    0.0406524622         -0.4442
C212       C    0.0000000000    0.0000000000   -0.1217464163            0.52
C213       C   -0.0263155729    0.0029169349   -0.1397383922         -0.4784
C214       C   -0.0248637386    0.0031249474   -0.1713834246          0.5205
C215       C    0.0028765393   -0.0000395964   -0.1865179192          0.5175
C216       C    0.0288980099   -0.0034419244   -0.1687679102          0.5155
C217       C    0.0280427770   -0.0032325205   -0.1370450904          0.5169
N218       N    0.0050576211    0.0011623636   -0.2171835338          0.5173
H219       H   -0.0467107555    0.0059739486   -0.1848629564         -0.4778
H220       H   -0.0496823079    0.0056152843   -0.1289895883         -0.4759
Cl221     Cl    0.0645303307   -0.0070324944   -0.1184492730          0.5148
H222       H    0.0517409495   -0.0057016938   -0.1806504277          0.5133
N223       N   -0.0105938335    0.0089049461   -0.2423702622         -0.4772
C224       C    0.0016317077    0.0022412758   -0.2736929160           0.516
C225       C    0.0078637089    0.0264768448   -0.2941134086          -0.464
C226       C   -0.0033379379    0.0267634535   -0.3284410806         -0.4652
H227       H    0.0141213904    0.0506736523   -0.2863917438         -0.4428
H228       H    0.0194132737    0.0174972398   -0.2622698257         -0.4703
O229       O    0.0180791707    0.0115868811   -0.3508275501          0.5211
C230       C   -0.0351264680    0.0067846807   -0.3701329701          0.5157
C231       C   -0.0351483264    0.0099968608   -0.3340780630          0.5199
H232       H   -0.0552857650    0.0238883262   -0.3253925598          -0.468
H233       H   -0.0426859324    0.0292975028   -0.3807125893         -0.4655
H234       H   -0.0509031138   -0.0121181747   -0.3783131654          0.4989
H235       H   -0.0354287443   -0.0135598081   -0.3231395205             0.5
H236       H    0.0037162710   -0.0256630337   -0.3798957017          0.4878
C237       C   -0.0000000000    0.0000000000   -0.3782535837          0.5099
H238       H   -0.0058157312    0.0515278176   -0.3359684125         -0.4442
C185       C    0.0000000000    0.0000000000    0.3782535837            0.52
C186       C    0.0030633496   -0.0262989311    0.3602616078         -0.4784
C187       C    0.0025348151   -0.0249308144    0.3286165754          0.5205
C188       C   -0.0006069815    0.0028120490    0.3134820808          0.5175
C189       C   -0.0031313158    0.0289333143    0.3312320898          0.5155
C190       C   -0.0031434424    0.0280529018    0.3629549096          0.5169
N191       N   -0.0022677708    0.0046677442    0.2828164662          0.5173
H192       H    0.0046615091   -0.0468599304    0.3151370436         -0.4778
H193       H    0.0056779155   -0.0496751891    0.3710104117         -0.4759
Cl194     Cl   -0.0076291269    0.0644625160    0.3815507270          0.5148
H195       H   -0.0060557212    0.0517007100    0.3193495723          0.5133
N196       N   -0.0063002696   -0.0123220930    0.2576297378         -0.4772
C197       C   -0.0025503002    0.0010870863    0.2263070840           0.516
C198       C   -0.0275662699    0.0017210452    0.2058865914          -0.464
C199       C   -0.0253316358   -0.0092591846    0.1715589194         -0.4652
H200       H   -0.0525502300    0.0023887284    0.2136082562         -0.4428
H201       H   -0.0214077360    0.0149912454    0.2377301743         -0.4703
O202       O   -0.0153487363    0.0150176070    0.1491724499          0.5211
C203       C    0.0012716517   -0.0357530915    0.1298670299          0.5157
C204       C   -0.0018536844   -0.0364952864    0.1659219370          0.5199
H205       H   -0.0108714484   -0.0592366403    0.1746074402          -0.468
H206       H   -0.0189703638   -0.0481721682    0.1192874107         -0.4655
H207       H    0.0232329970   -0.0468850190    0.1216868346          0.4989
H208       H    0.0211650179   -0.0314818413    0.1768604795             0.5
H209       H    0.0241743788    0.0093809050    0.1201042983          0.4878
C210       C   -0.0000000000   -0.0000000000    0.1217464163          0.5099
H211       H   -0.0489082145   -0.0172315197    0.1640315875         -0.4442
loop_
_geom_bond_atom_site_label_1
_geom_bond_atom_site_label_2
_geom_bond_distance
_geom_bond_site_symmetry_2
_ccdc_geom_bond_type
Zn1          O5 1.942       .   S
Zn1          O6 1.922       .   S
Zn1         O10 1.922       .   S
Zn1         O17 1.922       .   S
Zn2          O5 1.942       .   S
Zn2          O7 1.922       .   S
Zn2          O9 1.922       .   S
Zn2         O13 1.922       .   S
Zn3          O5 1.942       .   S
Zn3          O8 1.922       .   S
Zn3         O11 1.922       .   S
Zn3         O14 1.922       .   S
Zn4          O5 1.942       .   S
Zn4         O12 1.922       .   S
Zn4         O15 1.922       .   S
Zn4         O16 1.922       .   S
O6          C18 1.304       .   A
O7          C19 1.304       .   A
O8          C20 1.304       .   A
O9          C18 1.304       .   A
O10         C20 1.304       .   A
O11         C19 1.304       .   A
O12         C21 1.304       .   A
O13         C22 1.304       .   A
O14         C21 1.304       .   A
O15         C22 1.304       .   A
O16         C23 1.304       .   A
O17         C23 1.304       .   A
C18        C293 1.540       .   S
C19        C210 1.540       .   S
C20        C266 1.540       .   S
C21        C320 1.540       .   S
C22        C239 1.540       .   S
C23        C212 1.540       .   S
Zn24        O28 1.942       .   S
Zn24        O29 1.922       .   S
Zn24        O33 1.922       .   S
Zn24        O40 1.922       .   S
Zn25        O28 1.942       .   S
Zn25        O30 1.922       .   S
Zn25        O32 1.922       .   S
Zn25        O36 1.922       .   S
Zn26        O28 1.942       .   S
Zn26        O31 1.922       .   S
Zn26        O34 1.922       .   S
Zn26        O37 1.922       .   S
Zn27        O28 1.942       .   S
Zn27        O35 1.922       .   S
Zn27        O38 1.922       .   S
Zn27        O39 1.922       .   S
O29         C41 1.304       .   A
O30         C42 1.304       .   A
O31         C43 1.304       .   A
O32         C41 1.304       .   A
O33         C43 1.304       .   A
O34         C42 1.304       .   A
O35         C44 1.304       .   A
O36         C45 1.304       .   A
O37         C44 1.304       .   A
O38         C45 1.304       .   A
O39         C46 1.304       .   A
O40         C46 1.304       .   A
C41        C426 1.540       .   S
C42        C399 1.540       .   S
C43        C185 1.540   1_655   S
C44        C428 1.540       .   S
C45        C237 1.540   1_656   S
C46        C347 1.540       .   S
Zn47        O51 1.942       .   S
Zn47        O52 1.922       .   S
Zn47        O56 1.922       .   S
Zn47        O63 1.922       .   S
Zn48        O51 1.942       .   S
Zn48        O53 1.922       .   S
Zn48        O55 1.922       .   S
Zn48        O59 1.922       .   S
Zn49        O51 1.942       .   S
Zn49        O54 1.922       .   S
Zn49        O57 1.922       .   S
Zn49        O60 1.922       .   S
Zn50        O51 1.942       .   S
Zn50        O58 1.922       .   S
Zn50        O61 1.922       .   S
Zn50        O62 1.922       .   S
O52         C64 1.304       .   A
O53         C65 1.304       .   A
O54         C66 1.304       .   A
O55         C64 1.304       .   A
O56         C66 1.304       .   A
O57         C65 1.304       .   A
O58         C67 1.304       .   A
O59         C68 1.304       .   A
O60         C67 1.304       .   A
O61         C68 1.304       .   A
O62         C69 1.304       .   A
O63         C69 1.304       .   A
C64        C318 1.540   1_655   S
C65        C455 1.540       .   S
C66        C509 1.540       .   S
C67        C345 1.540   1_665   S
C68        C561 1.540       .   S
C69        C482 1.540       .   S
Zn70        O74 1.942       .   S
Zn70        O75 1.922       .   S
Zn70        O79 1.922       .   S
Zn70        O86 1.922       .   S
Zn71        O74 1.942       .   S
Zn71        O76 1.922       .   S
Zn71        O78 1.922       .   S
Zn71        O82 1.922       .   S
Zn72        O74 1.942       .   S
Zn72        O77 1.922       .   S
Zn72        O80 1.922       .   S
Zn72        O83 1.922       .   S
Zn73        O74 1.942       .   S
Zn73        O81 1.922       .   S
Zn73        O84 1.922       .   S
Zn73        O85 1.922       .   S
O75         C87 1.304       .   A
O76         C88 1.304       .   A
O77         C89 1.304       .   A
O78         C87 1.304       .   A
O79         C89 1.304       .   A
O80         C88 1.304       .   A
O81         C90 1.304       .   A
O82         C91 1.304       .   A
O83         C90 1.304       .   A
O84         C91 1.304       .   A
O85         C92 1.304       .   A
O86         C92 1.304       .   A
C87        C401 1.540       .   S
C88        C480 1.540       .   S
C89        C590 1.540       .   S
C90        C453 1.540   1_565   S
C91        C563 1.540       .   S
C92        C507 1.540   1_556   S
Zn93        O97 1.942       .   S
Zn93        O98 1.922       .   S
Zn93       O102 1.922       .   S
Zn93       O109 1.922       .   S
Zn94        O97 1.942       .   S
Zn94        O99 1.922       .   S
Zn94       O101 1.922       .   S
Zn94       O105 1.922       .   S
Zn95        O97 1.942       .   S
Zn95       O100 1.922       .   S
Zn95       O103 1.922       .   S
Zn95       O106 1.922       .   S
Zn96        O97 1.942       .   S
Zn96       O104 1.922       .   S
Zn96       O107 1.922       .   S
Zn96       O108 1.922       .   S
O98        C110 1.304       .   A
O99        C111 1.304       .   A
O100       C112 1.304       .   A
O101       C110 1.304       .   A
O102       C112 1.304       .   A
O103       C111 1.304       .   A
O104       C113 1.304       .   A
O105       C114 1.304       .   A
O106       C113 1.304       .   A
O107       C114 1.304       .   A
O108       C115 1.304       .   A
O109       C115 1.304       .   A
C110       C264 1.540   1_565   S
C111       C617 1.540       .   S
C112       C723 1.540       .   S
C113       C291 1.540   1_665   S
C114       C671 1.540       .   S
C115       C669 1.540       .   S
Zn116      O120 1.942       .   S
Zn116      O121 1.922       .   S
Zn116      O125 1.922       .   S
Zn116      O132 1.922       .   S
Zn117      O120 1.942       .   S
Zn117      O122 1.922       .   S
Zn117      O124 1.922       .   S
Zn117      O128 1.922       .   S
Zn118      O120 1.942       .   S
Zn118      O123 1.922       .   S
Zn118      O126 1.922       .   S
Zn118      O129 1.922       .   S
Zn119      O120 1.942       .   S
Zn119      O127 1.922       .   S
Zn119      O130 1.922       .   S
Zn119      O131 1.922       .   S
O121       C133 1.304       .   A
O122       C134 1.304       .   A
O123       C135 1.304       .   A
O124       C133 1.304       .   A
O125       C135 1.304       .   A
O126       C134 1.304       .   A
O127       C136 1.304       .   A
O128       C137 1.304       .   A
O129       C136 1.304       .   A
O130       C137 1.304       .   A
O131       C138 1.304       .   A
O132       C138 1.304       .   A
C133       C372 1.540   1_465   S
C134       C642 1.540       .   S
C135       C725 1.540       .   S
C136       C374 1.540   1_565   S
C137       C752 1.540       .   S
C138       C644 1.540   1_556   S
Zn139      O143 1.942       .   S
Zn139      O144 1.922       .   S
Zn139      O148 1.922       .   S
Zn139      O155 1.922       .   S
Zn140      O143 1.942       .   S
Zn140      O145 1.922       .   S
Zn140      O147 1.922       .   S
Zn140      O151 1.922       .   S
Zn141      O143 1.942       .   S
Zn141      O146 1.922       .   S
Zn141      O149 1.922       .   S
Zn141      O152 1.922       .   S
Zn142      O143 1.942       .   S
Zn142      O150 1.922       .   S
Zn142      O153 1.922       .   S
Zn142      O154 1.922       .   S
O144       C156 1.304       .   A
O145       C157 1.304       .   A
O146       C158 1.304       .   A
O147       C156 1.304       .   A
O148       C158 1.304       .   A
O149       C157 1.304       .   A
O150       C159 1.304       .   A
O151       C160 1.304       .   A
O152       C159 1.304       .   A
O153       C160 1.304       .   A
O154       C161 1.304       .   A
O155       C161 1.304       .   A
C156       C534 1.540   1_455   S
C157       C696 1.540   1_545   S
C158       C831 1.540       .   S
C159       C536 1.540       .   S
C160       C779 1.540       .   S
C161       C698 1.540       .   S
Zn162      O166 1.942       .   S
Zn162      O167 1.922       .   S
Zn162      O171 1.922       .   S
Zn162      O178 1.922       .   S
Zn163      O166 1.942       .   S
Zn163      O168 1.922       .   S
Zn163      O170 1.922       .   S
Zn163      O174 1.922       .   S
Zn164      O166 1.942       .   S
Zn164      O169 1.922       .   S
Zn164      O172 1.922       .   S
Zn164      O175 1.922       .   S
Zn165      O166 1.942       .   S
Zn165      O173 1.922       .   S
Zn165      O176 1.922       .   S
Zn165      O177 1.922       .   S
O167       C179 1.304       .   A
O168       C180 1.304       .   A
O169       C181 1.304       .   A
O170       C179 1.304       .   A
O171       C181 1.304       .   A
O172       C180 1.304       .   A
O173       C182 1.304       .   A
O174       C183 1.304       .   A
O175       C182 1.304       .   A
O176       C183 1.304       .   A
O177       C184 1.304       .   A
O178       C184 1.304       .   A
C179       C804 1.540       .   S
C180       C588 1.540   1_455   S
C181       C750 1.540   1_545   S
C182       C806 1.540   1_556   S
C183       C777 1.540       .   S
C184       C615 1.540       .   S
C806       C807 0.028       .   A
C806       C811 0.028       .   A
C807       C808 0.027       .   A
C807       H814 0.022       .   A
C808       C809 0.027       .   A
C808       H813 0.022       .   A
C809       C810 0.027       .   A
C809       N812 0.026       .   A
C810       C811 0.027       .   A
C810       H816 0.022       .   A
C811      Cl815 0.035       .   A
N812       N817 0.026       .   A
N817       C818 0.030       .   A
C818       C819 0.028       .   A
C818       H822 0.022       .   A
C819       C820 0.031       .   A
C819       H821 0.023       .   A
C820       O823 0.030       .   A
C820       C825 0.031       .   A
C820       H832 0.022       .   A
O823       C831 0.030       .   A
C824       C825 0.031       .   A
C824       H827 0.022       .   A
C824       H828 0.022       .   A
C824       C831 0.032       .   A
C825       H826 0.022       .   A
C825       H829 0.022       .   A
H830       C831 0.022       .   A
C779       C780 0.028       .   A
C779       C784 0.028       .   A
C780       C781 0.027       .   A
C780       H787 0.022       .   A
C781       C782 0.027       .   A
C781       H786 0.022       .   A
C782       C783 0.027       .   A
C782       N785 0.026       .   A
C783       C784 0.027       .   A
C783       H789 0.022       .   A
C784      Cl788 0.035       .   A
N785       N790 0.026       .   A
N790       C791 0.030       .   A
C791       C792 0.028       .   A
C791       H795 0.022       .   A
C792       C793 0.031       .   A
C792       H794 0.023       .   A
C793       O796 0.030       .   A
C793       C798 0.031       .   A
C793       H805 0.022       .   A
O796       C804 0.030       .   A
C797       C798 0.031       .   A
C797       H800 0.022       .   A
C797       H801 0.022       .   A
C797       C804 0.032       .   A
C798       H799 0.022       .   A
C798       H802 0.022       .   A
H803       C804 0.022       .   A
C752       C753 0.028       .   A
C752       C757 0.028       .   A
C753       C754 0.027       .   A
C753       H760 0.022       .   A
C754       C755 0.027       .   A
C754       H759 0.022       .   A
C755       C756 0.027       .   A
C755       N758 0.026       .   A
C756       C757 0.027       .   A
C756       H762 0.022       .   A
C757      Cl761 0.035       .   A
N758       N763 0.026       .   A
N763       C764 0.030       .   A
C764       C765 0.028       .   A
C764       H768 0.022       .   A
C765       C766 0.031       .   A
C765       H767 0.023       .   A
C766       O769 0.030       .   A
C766       C771 0.031       .   A
C766       H778 0.022       .   A
O769       C777 0.030       .   A
C770       C771 0.031       .   A
C770       H773 0.022       .   A
C770       H774 0.022       .   A
C770       C777 0.032       .   A
C771       H772 0.022       .   A
C771       H775 0.022       .   A
H776       C777 0.022       .   A
C725       C726 0.028       .   A
C725       C730 0.028       .   A
C726       C727 0.027       .   A
C726       H733 0.022       .   A
C727       C728 0.027       .   A
C727       H732 0.022       .   A
C728       C729 0.027       .   A
C728       N731 0.026       .   A
C729       C730 0.027       .   A
C729       H735 0.022       .   A
C730      Cl734 0.035       .   A
N731       N736 0.026       .   A
N736       C737 0.030       .   A
C737       C738 0.028       .   A
C737       H741 0.022       .   A
C738       C739 0.031       .   A
C738       H740 0.023       .   A
C739       O742 0.030       .   A
C739       C744 0.031       .   A
C739       H751 0.022       .   A
O742       C750 0.030       .   A
C743       C744 0.031       .   A
C743       H746 0.022       .   A
C743       H747 0.022       .   A
C743       C750 0.032       .   A
C744       H745 0.022       .   A
C744       H748 0.022       .   A
H749       C750 0.022       .   A
C698       C699 0.028       .   A
C698       C703 0.028       .   A
C699       C700 0.027       .   A
C699       H706 0.022       .   A
C700       C701 0.027       .   A
C700       H705 0.022       .   A
C701       C702 0.027       .   A
C701       N704 0.026       .   A
C702       C703 0.027       .   A
C702       H708 0.022       .   A
C703      Cl707 0.035       .   A
N704       N709 0.026       .   A
N709       C710 0.030       .   A
C710       C711 0.028       .   A
C710       H714 0.022       .   A
C711       C712 0.031       .   A
C711       H713 0.023       .   A
C712       O715 0.030       .   A
C712       C717 0.031       .   A
C712       H724 0.022       .   A
O715       C723 0.030       .   A
C716       C717 0.031       .   A
C716       H719 0.022       .   A
C716       H720 0.022       .   A
C716       C723 0.032       .   A
C717       H718 0.022       .   A
C717       H721 0.022       .   A
H722       C723 0.022       .   A
C671       C672 0.028       .   A
C671       C676 0.028       .   A
C672       C673 0.027       .   A
C672       H679 0.022       .   A
C673       C674 0.027       .   A
C673       H678 0.022       .   A
C674       C675 0.027       .   A
C674       N677 0.026       .   A
C675       C676 0.027       .   A
C675       H681 0.022       .   A
C676      Cl680 0.035       .   A
N677       N682 0.026       .   A
N682       C683 0.030       .   A
C683       C684 0.028       .   A
C683       H687 0.022       .   A
C684       C685 0.031       .   A
C684       H686 0.023       .   A
C685       O688 0.030       .   A
C685       C690 0.031       .   A
C685       H697 0.022       .   A
O688       C696 0.030       .   A
C689       C690 0.031       .   A
C689       H692 0.022       .   A
C689       H693 0.022       .   A
C689       C696 0.032       .   A
C690       H691 0.022       .   A
C690       H694 0.022       .   A
H695       C696 0.022       .   A
C644       C645 0.028       .   A
C644       C649 0.028       .   A
C645       C646 0.027       .   A
C645       H652 0.022       .   A
C646       C647 0.027       .   A
C646       H651 0.022       .   A
C647       C648 0.027       .   A
C647       N650 0.026       .   A
C648       C649 0.027       .   A
C648       H654 0.022       .   A
C649      Cl653 0.035       .   A
N650       N655 0.026       .   A
N655       C656 0.030       .   A
C656       C657 0.028       .   A
C656       H660 0.022       .   A
C657       C658 0.031       .   A
C657       H659 0.023       .   A
C658       O661 0.030       .   A
C658       C663 0.031       .   A
C658       H670 0.022       .   A
O661       C669 0.030       .   A
C662       C663 0.031       .   A
C662       H665 0.022       .   A
C662       H666 0.022       .   A
C662       C669 0.032       .   A
C663       H664 0.022       .   A
C663       H667 0.022       .   A
H668       C669 0.022       .   A
C617       C618 0.028       .   A
C617       C622 0.028       .   A
C618       C619 0.027       .   A
C618       H625 0.022       .   A
C619       C620 0.027       .   A
C619       H624 0.022       .   A
C620       C621 0.027       .   A
C620       N623 0.026       .   A
C621       C622 0.027       .   A
C621       H627 0.022       .   A
C622      Cl626 0.035       .   A
N623       N628 0.026       .   A
N628       C629 0.030       .   A
C629       C630 0.028       .   A
C629       H633 0.022       .   A
C630       C631 0.031       .   A
C630       H632 0.023       .   A
C631       O634 0.030       .   A
C631       C636 0.031       .   A
C631       H643 0.022       .   A
O634       C642 0.030       .   A
C635       C636 0.031       .   A
C635       H638 0.022       .   A
C635       H639 0.022       .   A
C635       C642 0.032       .   A
C636       H637 0.022       .   A
C636       H640 0.022       .   A
H641       C642 0.022       .   A
C590       C591 0.028       .   A
C590       C595 0.028       .   A
C591       C592 0.027       .   A
C591       H598 0.022       .   A
C592       C593 0.027       .   A
C592       H597 0.022       .   A
C593       C594 0.027       .   A
C593       N596 0.026       .   A
C594       C595 0.027       .   A
C594       H600 0.022       .   A
C595      Cl599 0.035       .   A
N596       N601 0.026       .   A
N601       C602 0.030       .   A
C602       C603 0.028       .   A
C602       H606 0.022       .   A
C603       C604 0.031       .   A
C603       H605 0.023       .   A
C604       O607 0.030       .   A
C604       C609 0.031       .   A
C604       H616 0.022       .   A
O607       C615 0.030       .   A
C608       C609 0.031       .   A
C608       H611 0.022       .   A
C608       H612 0.022       .   A
C608       C615 0.032       .   A
C609       H610 0.022       .   A
C609       H613 0.022       .   A
H614       C615 0.022       .   A
C563       C564 0.028       .   A
C563       C568 0.028       .   A
C564       C565 0.027       .   A
C564       H571 0.022       .   A
C565       C566 0.027       .   A
C565       H570 0.022       .   A
C566       C567 0.027       .   A
C566       N569 0.026       .   A
C567       C568 0.027       .   A
C567       H573 0.022       .   A
C568      Cl572 0.035       .   A
N569       N574 0.026       .   A
N574       C575 0.030       .   A
C575       C576 0.028       .   A
C575       H579 0.022       .   A
C576       C577 0.031       .   A
C576       H578 0.023       .   A
C577       O580 0.030       .   A
C577       C582 0.031       .   A
C577       H589 0.022       .   A
O580       C588 0.030       .   A
C581       C582 0.031       .   A
C581       H584 0.022       .   A
C581       H585 0.022       .   A
C581       C588 0.032       .   A
C582       H583 0.022       .   A
C582       H586 0.022       .   A
H587       C588 0.022       .   A
C536       C537 0.028       .   A
C536       C541 0.028       .   A
C537       C538 0.027       .   A
C537       H544 0.022       .   A
C538       C539 0.027       .   A
C538       H543 0.022       .   A
C539       C540 0.027       .   A
C539       N542 0.026       .   A
C540       C541 0.027       .   A
C540       H546 0.022       .   A
C541      Cl545 0.035       .   A
N542       N547 0.026       .   A
N547       C548 0.030       .   A
C548       C549 0.028       .   A
C548       H552 0.022       .   A
C549       C550 0.031       .   A
C549       H551 0.023       .   A
C550       O553 0.030       .   A
C550       C555 0.031       .   A
C550       H562 0.022       .   A
O553       C561 0.030       .   A
C554       C555 0.031       .   A
C554       H557 0.022       .   A
C554       H558 0.022       .   A
C554       C561 0.032       .   A
C555       H556 0.022       .   A
C555       H559 0.022       .   A
H560       C561 0.022       .   A
C509       C510 0.028       .   A
C509       C514 0.028       .   A
C510       C511 0.027       .   A
C510       H517 0.022       .   A
C511       C512 0.027       .   A
C511       H516 0.022       .   A
C512       C513 0.027       .   A
C512       N515 0.026       .   A
C513       C514 0.027       .   A
C513       H519 0.022       .   A
C514      Cl518 0.035       .   A
N515       N520 0.026       .   A
N520       C521 0.030       .   A
C521       C522 0.028       .   A
C521       H525 0.022       .   A
C522       C523 0.031       .   A
C522       H524 0.023       .   A
C523       O526 0.030       .   A
C523       C528 0.031       .   A
C523       H535 0.022       .   A
O526       C534 0.030       .   A
C527       C528 0.031       .   A
C527       H530 0.022       .   A
C527       H531 0.022       .   A
C527       C534 0.032       .   A
C528       H529 0.022       .   A
C528       H532 0.022       .   A
H533       C534 0.022       .   A
C482       C483 0.028       .   A
C482       C487 0.028       .   A
C483       C484 0.027       .   A
C483       H490 0.022       .   A
C484       C485 0.027       .   A
C484       H489 0.022       .   A
C485       C486 0.027       .   A
C485       N488 0.026       .   A
C486       C487 0.027       .   A
C486       H492 0.022       .   A
C487      Cl491 0.035       .   A
N488       N493 0.026       .   A
N493       C494 0.030       .   A
C494       C495 0.028       .   A
C494       H498 0.022       .   A
C495       C496 0.031       .   A
C495       H497 0.023       .   A
C496       O499 0.030       .   A
C496       C501 0.031       .   A
C496       H508 0.022       .   A
O499       C507 0.030       .   A
C500       C501 0.031       .   A
C500       H503 0.022       .   A
C500       H504 0.022       .   A
C500       C507 0.032       .   A
C501       H502 0.022       .   A
C501       H505 0.022       .   A
H506       C507 0.022       .   A
C455       C456 0.028       .   A
C455       C460 0.028       .   A
C456       C457 0.027       .   A
C456       H463 0.022       .   A
C457       C458 0.027       .   A
C457       H462 0.022       .   A
C458       C459 0.027       .   A
C458       N461 0.026       .   A
C459       C460 0.027       .   A
C459       H465 0.022       .   A
C460      Cl464 0.035       .   A
N461       N466 0.026       .   A
N466       C467 0.030       .   A
C467       C468 0.028       .   A
C467       H471 0.022       .   A
C468       C469 0.031       .   A
C468       H470 0.023       .   A
C469       O472 0.030       .   A
C469       C474 0.031       .   A
C469       H481 0.022       .   A
O472       C480 0.030       .   A
C473       C474 0.031       .   A
C473       H476 0.022       .   A
C473       H477 0.022       .   A
C473       C480 0.032       .   A
C474       H475 0.022       .   A
C474       H478 0.022       .   A
H479       C480 0.022       .   A
C428       C429 0.028       .   A
C428       C433 0.028       .   A
C429       C430 0.027       .   A
C429       H436 0.022       .   A
C430       C431 0.027       .   A
C430       H435 0.022       .   A
C431       C432 0.027       .   A
C431       N434 0.026       .   A
C432       C433 0.027       .   A
C432       H438 0.022       .   A
C433      Cl437 0.035       .   A
N434       N439 0.026       .   A
N439       C440 0.030       .   A
C440       C441 0.028       .   A
C440       H444 0.022       .   A
C441       C442 0.031       .   A
C441       H443 0.023       .   A
C442       O445 0.030       .   A
C442       C447 0.031       .   A
C442       H454 0.022       .   A
O445       C453 0.030       .   A
C446       C447 0.031       .   A
C446       H449 0.022       .   A
C446       H450 0.022       .   A
C446       C453 0.032       .   A
C447       H448 0.022       .   A
C447       H451 0.022       .   A
H452       C453 0.022       .   A
C401       C402 0.028       .   A
C401       C406 0.028       .   A
C402       C403 0.027       .   A
C402       H409 0.022       .   A
C403       C404 0.027       .   A
C403       H408 0.022       .   A
C404       C405 0.027       .   A
C404       N407 0.026       .   A
C405       C406 0.027       .   A
C405       H411 0.022       .   A
C406      Cl410 0.035       .   A
N407       N412 0.026       .   A
N412       C413 0.030       .   A
C413       C414 0.028       .   A
C413       H417 0.022       .   A
C414       C415 0.031       .   A
C414       H416 0.023       .   A
C415       O418 0.030       .   A
C415       C420 0.031       .   A
C415       H427 0.022       .   A
O418       C426 0.030       .   A
C419       C420 0.031       .   A
C419       H422 0.022       .   A
C419       H423 0.022       .   A
C419       C426 0.032       .   A
C420       H421 0.022       .   A
C420       H424 0.022       .   A
H425       C426 0.022       .   A
C374       C375 0.028       .   A
C374       C379 0.028       .   A
C375       C376 0.027       .   A
C375       H382 0.022       .   A
C376       C377 0.027       .   A
C376       H381 0.022       .   A
C377       C378 0.027       .   A
C377       N380 0.026       .   A
C378       C379 0.027       .   A
C378       H384 0.022       .   A
C379      Cl383 0.035       .   A
N380       N385 0.026       .   A
N385       C386 0.030       .   A
C386       C387 0.028       .   A
C386       H390 0.022       .   A
C387       C388 0.031       .   A
C387       H389 0.023       .   A
C388       O391 0.030       .   A
C388       C393 0.031       .   A
C388       H400 0.022       .   A
O391       C399 0.030       .   A
C392       C393 0.031       .   A
C392       H395 0.022       .   A
C392       H396 0.022       .   A
C392       C399 0.032       .   A
C393       H394 0.022       .   A
C393       H397 0.022       .   A
H398       C399 0.022       .   A
C347       C348 0.028       .   A
C347       C352 0.028       .   A
C348       C349 0.027       .   A
C348       H355 0.022       .   A
C349       C350 0.027       .   A
C349       H354 0.022       .   A
C350       C351 0.027       .   A
C350       N353 0.026       .   A
C351       C352 0.027       .   A
C351       H357 0.022       .   A
C352      Cl356 0.035       .   A
N353       N358 0.026       .   A
N358       C359 0.030       .   A
C359       C360 0.028       .   A
C359       H363 0.022       .   A
C360       C361 0.031       .   A
C360       H362 0.023       .   A
C361       O364 0.030       .   A
C361       C366 0.031       .   A
C361       H373 0.022       .   A
O364       C372 0.030       .   A
C365       C366 0.031       .   A
C365       H368 0.022       .   A
C365       H369 0.022       .   A
C365       C372 0.032       .   A
C366       H367 0.022       .   A
C366       H370 0.022       .   A
H371       C372 0.022       .   A
C320       C321 0.028       .   A
C320       C325 0.028       .   A
C321       C322 0.027       .   A
C321       H328 0.022       .   A
C322       C323 0.027       .   A
C322       H327 0.022       .   A
C323       C324 0.027       .   A
C323       N326 0.026       .   A
C324       C325 0.027       .   A
C324       H330 0.022       .   A
C325      Cl329 0.035       .   A
N326       N331 0.026       .   A
N331       C332 0.030       .   A
C332       C333 0.028       .   A
C332       H336 0.022       .   A
C333       C334 0.031       .   A
C333       H335 0.023       .   A
C334       O337 0.030       .   A
C334       C339 0.031       .   A
C334       H346 0.022       .   A
O337       C345 0.030       .   A
C338       C339 0.031       .   A
C338       H341 0.022       .   A
C338       H342 0.022       .   A
C338       C345 0.032       .   A
C339       H340 0.022       .   A
C339       H343 0.022       .   A
H344       C345 0.022       .   A
C293       C294 0.028       .   A
C293       C298 0.028       .   A
C294       C295 0.027       .   A
C294       H301 0.022       .   A
C295       C296 0.027       .   A
C295       H300 0.022       .   A
C296       C297 0.027       .   A
C296       N299 0.026       .   A
C297       C298 0.027       .   A
C297       H303 0.022       .   A
C298      Cl302 0.035       .   A
N299       N304 0.026       .   A
N304       C305 0.030       .   A
C305       C306 0.028       .   A
C305       H309 0.022       .   A
C306       C307 0.031       .   A
C306       H308 0.023       .   A
C307       O310 0.030       .   A
C307       C312 0.031       .   A
C307       H319 0.022       .   A
O310       C318 0.030       .   A
C311       C312 0.031       .   A
C311       H314 0.022       .   A
C311       H315 0.022       .   A
C311       C318 0.032       .   A
C312       H313 0.022       .   A
C312       H316 0.022       .   A
H317       C318 0.022       .   A
C266       C267 0.028       .   A
C266       C271 0.028       .   A
C267       C268 0.027       .   A
C267       H274 0.022       .   A
C268       C269 0.027       .   A
C268       H273 0.022       .   A
C269       C270 0.027       .   A
C269       N272 0.026       .   A
C270       C271 0.027       .   A
C270       H276 0.022       .   A
C271      Cl275 0.035       .   A
N272       N277 0.026       .   A
N277       C278 0.030       .   A
C278       C279 0.028       .   A
C278       H282 0.022       .   A
C279       C280 0.031       .   A
C279       H281 0.023       .   A
C280       O283 0.030       .   A
C280       C285 0.031       .   A
C280       H292 0.022       .   A
O283       C291 0.030       .   A
C284       C285 0.031       .   A
C284       H287 0.022       .   A
C284       H288 0.022       .   A
C284       C291 0.032       .   A
C285       H286 0.022       .   A
C285       H289 0.022       .   A
H290       C291 0.022       .   A
C239       C240 0.028       .   A
C239       C244 0.028       .   A
C240       C241 0.027       .   A
C240       H247 0.022       .   A
C241       C242 0.027       .   A
C241       H246 0.022       .   A
C242       C243 0.027       .   A
C242       N245 0.026       .   A
C243       C244 0.027       .   A
C243       H249 0.022       .   A
C244      Cl248 0.035       .   A
N245       N250 0.026       .   A
N250       C251 0.030       .   A
C251       C252 0.028       .   A
C251       H255 0.022       .   A
C252       C253 0.031       .   A
C252       H254 0.023       .   A
C253       O256 0.030       .   A
C253       C258 0.031       .   A
C253       H265 0.022       .   A
O256       C264 0.030       .   A
C257       C258 0.031       .   A
C257       H260 0.022       .   A
C257       H261 0.022       .   A
C257       C264 0.032       .   A
C258       H259 0.022       .   A
C258       H262 0.022       .   A
H263       C264 0.022       .   A
C212       C213 0.028       .   A
C212       C217 0.028       .   A
C213       C214 0.027       .   A
C213       H220 0.022       .   A
C214       C215 0.027       .   A
C214       H219 0.022       .   A
C215       C216 0.027       .   A
C215       N218 0.026       .   A
C216       C217 0.027       .   A
C216       H222 0.022       .   A
C217      Cl221 0.035       .   A
N218       N223 0.026       .   A
N223       C224 0.030       .   A
C224       C225 0.028       .   A
C224       H228 0.022       .   A
C225       C226 0.031       .   A
C225       H227 0.023       .   A
C226       O229 0.030       .   A
C226       C231 0.031       .   A
C226       H238 0.022       .   A
O229       C237 0.030       .   A
C230       C231 0.031       .   A
C230       H233 0.022       .   A
C230       H234 0.022       .   A
C230       C237 0.032       .   A
C231       H232 0.022       .   A
C231       H235 0.022       .   A
H236       C237 0.022       .   A
C185       C186 0.028       .   A
C185       C190 0.028       .   A
C186       C187 0.027       .   A
C186       H193 0.022       .   A
C187       C188 0.027       .   A
C187       H192 0.022       .   A
C188       C189 0.027       .   A
C188       N191 0.026       .   A
C189       C190 0.027       .   A
C189       H195 0.022       .   A
C190      Cl194 0.035       .   A
N191       N196 0.026       .   A
N196       C197 0.030       .   A
C197       C198 0.028       .   A
C197       H201 0.022       .   A
C198       C199 0.031       .   A
C198       H200 0.023       .   A
C199       O202 0.030       .   A
C199       C204 0.031       .   A
C199       H211 0.022       .   A
O202       C210 0.030       .   A
C203       C204 0.031       .   A
C203       H206 0.022       .   A
C203       H207 0.022       .   A
C203       C210 0.032       .   A
C204       H205 0.022       .   A
C204       H208 0.022       .   A
H209       C210 0.022       .   A
