data_pcu_v1-6c_Zn_1_Ch_1-1_fer_tobacco
_audit_creation_date              2021-04-07
_audit_creation_method            'tobacco_3.0'
_symmetry_space_group_name_H-M    'P1'
_symmetry_Int_Tables_number       1
_symmetry_cell_setting            triclinic
loop_
_symmetry_equiv_pos_as_xyz
  x,y,z
_cell_length_a                    60.749367932201864
_cell_length_b                    60.749367932201864
_cell_length_c                    60.749367932201864
_cell_angle_alpha                 90.0
_cell_angle_beta                  90.0
_cell_angle_gamma                 90.0
loop_
_atom_site_label
_atom_site_type_symbol
_atom_site_fract_x
_atom_site_fract_y
_atom_site_fract_z
_atom_site_charge
Zn1       Zn   -0.0184561591   -0.0184561591    0.0184561591          1.4972
Zn2       Zn    0.0184561591    0.0184561591    0.0184561591          1.4936
Zn3       Zn    0.0184561591   -0.0184561591   -0.0184561591          1.4911
Zn4       Zn   -0.0184561591    0.0184561591   -0.0184561591          1.4948
O5         O    0.0000000000    0.0000000000    0.0000000000         -2.2008
O6         O   -0.0135639271   -0.0135639271    0.0493272622         -1.1071
O7         O    0.0493272622    0.0135639271    0.0135639271         -1.1053
O8         O    0.0135639271   -0.0493272622   -0.0135639271         -1.1004
O9         O    0.0135639271    0.0135639271    0.0493272622         -1.1072
O10        O   -0.0135639271   -0.0493272622    0.0135639271         -1.1032
O11        O    0.0493272622   -0.0135639271   -0.0135639271          -1.109
O12        O   -0.0135639271    0.0135639271   -0.0493272622         -1.1029
O13        O    0.0135639271    0.0493272622    0.0135639271         -1.1105
O14        O    0.0135639271   -0.0135639271   -0.0493272622         -1.1044
O15        O   -0.0135639271    0.0493272622   -0.0135639271         -1.1091
O16        O   -0.0493272622    0.0135639271   -0.0135639271         -1.1082
O17        O   -0.0493272622   -0.0135639271    0.0135639271         -1.1061
C18        C   -0.0000000000   -0.0000000000    0.0589767453          0.4118
C19        C    0.0589767453   -0.0000000000   -0.0000000000          0.4167
C20        C   -0.0000000000   -0.0589767453    0.0000000000          0.4063
C21        C    0.0000000000    0.0000000000   -0.0589767453          0.4101
C22        C    0.0000000000    0.0589767453   -0.0000000000          0.4215
C23        C   -0.0589767453    0.0000000000    0.0000000000           0.412
Zn24      Zn    0.9815438409    0.0184561591    0.4815438409          1.4972
Zn25      Zn    1.0184561591   -0.0184561591    0.4815438409          1.4936
Zn26      Zn    1.0184561591    0.0184561591    0.5184561591          1.4911
Zn27      Zn    0.9815438409   -0.0184561591    0.5184561591          1.4948
O28        O    1.0000000000    0.0000000000    0.5000000000         -2.2008
O29        O    0.9864360729    0.0135639271    0.4506727378         -1.1071
O30        O    1.0493272622   -0.0135639271    0.4864360729         -1.1053
O31        O    1.0135639271    0.0493272622    0.5135639271         -1.1004
O32        O    1.0135639271   -0.0135639271    0.4506727378         -1.1072
O33        O    0.9864360729    0.0493272622    0.4864360729         -1.1032
O34        O    1.0493272622    0.0135639271    0.5135639271          -1.109
O35        O    0.9864360729   -0.0135639271    0.5493272622         -1.1029
O36        O    1.0135639271   -0.0493272622    0.4864360729         -1.1105
O37        O    1.0135639271    0.0135639271    0.5493272622         -1.1044
O38        O    0.9864360729   -0.0493272622    0.5135639271         -1.1091
O39        O    0.9506727378   -0.0135639271    0.5135639271         -1.1082
O40        O    0.9506727378    0.0135639271    0.4864360729         -1.1061
C41        C    1.0000000000    0.0000000000    0.4410232547          0.4118
C42        C    1.0589767453    0.0000000000    0.5000000000          0.4167
C43        C    1.0000000000    0.0589767453    0.5000000000          0.4063
C44        C    1.0000000000    0.0000000000    0.5589767453          0.4101
C45        C    1.0000000000   -0.0589767453    0.5000000000          0.4215
C46        C    0.9410232547    0.0000000000    0.5000000000           0.412
Zn47      Zn    1.0184561591    0.4815438409   -0.0184561591          1.4972
Zn48      Zn    0.9815438409    0.4815438409    0.0184561591          1.4936
Zn49      Zn    1.0184561591    0.5184561591    0.0184561591          1.4911
Zn50      Zn    0.9815438409    0.5184561591   -0.0184561591          1.4948
O51        O    1.0000000000    0.5000000000    0.0000000000         -2.2008
O52        O    1.0135639271    0.4506727378   -0.0135639271         -1.1071
O53        O    0.9864360729    0.4864360729    0.0493272622         -1.1053
O54        O    1.0493272622    0.5135639271    0.0135639271         -1.1004
O55        O    0.9864360729    0.4506727378    0.0135639271         -1.1072
O56        O    1.0493272622    0.4864360729   -0.0135639271         -1.1032
O57        O    1.0135639271    0.5135639271    0.0493272622          -1.109
O58        O    0.9864360729    0.5493272622   -0.0135639271         -1.1029
O59        O    0.9506727378    0.4864360729    0.0135639271         -1.1105
O60        O    1.0135639271    0.5493272622    0.0135639271         -1.1044
O61        O    0.9506727378    0.5135639271   -0.0135639271         -1.1091
O62        O    0.9864360729    0.5135639271   -0.0493272622         -1.1082
O63        O    1.0135639271    0.4864360729   -0.0493272622         -1.1061
C64        C    1.0000000000    0.4410232547    0.0000000000          0.4118
C65        C    1.0000000000    0.5000000000    0.0589767453          0.4167
C66        C    1.0589767453    0.5000000000    0.0000000000          0.4063
C67        C    1.0000000000    0.5589767453    0.0000000000          0.4101
C68        C    0.9410232547    0.5000000000    0.0000000000          0.4215
C69        C    1.0000000000    0.5000000000   -0.0589767453           0.412
Zn70      Zn    0.9815438409    0.4815438409    0.5184561591          1.4972
Zn71      Zn    1.0184561591    0.4815438409    0.4815438409          1.4936
Zn72      Zn    0.9815438409    0.5184561591    0.4815438409          1.4911
Zn73      Zn    1.0184561591    0.5184561591    0.5184561591          1.4948
O74        O    1.0000000000    0.5000000000    0.5000000000         -2.2008
O75        O    0.9864360729    0.4506727378    0.5135639271         -1.1071
O76        O    1.0135639271    0.4864360729    0.4506727378         -1.1053
O77        O    0.9506727378    0.5135639271    0.4864360729         -1.1004
O78        O    1.0135639271    0.4506727378    0.4864360729         -1.1072
O79        O    0.9506727378    0.4864360729    0.5135639271         -1.1032
O80        O    0.9864360729    0.5135639271    0.4506727378          -1.109
O81        O    1.0135639271    0.5493272622    0.5135639271         -1.1029
O82        O    1.0493272622    0.4864360729    0.4864360729         -1.1105
O83        O    0.9864360729    0.5493272622    0.4864360729         -1.1044
O84        O    1.0493272622    0.5135639271    0.5135639271         -1.1091
O85        O    1.0135639271    0.5135639271    0.5493272622         -1.1082
O86        O    0.9864360729    0.4864360729    0.5493272622         -1.1061
C87        C    1.0000000000    0.4410232547    0.5000000000          0.4118
C88        C    1.0000000000    0.5000000000    0.4410232547          0.4167
C89        C    0.9410232547    0.5000000000    0.5000000000          0.4063
C90        C    1.0000000000    0.5589767453    0.5000000000          0.4101
C91        C    1.0589767453    0.5000000000    0.5000000000          0.4215
C92        C    1.0000000000    0.5000000000    0.5589767453           0.412
Zn93      Zn    0.4815438409    0.9815438409   -0.0184561591          1.4972
Zn94      Zn    0.4815438409    1.0184561591    0.0184561591          1.4936
Zn95      Zn    0.5184561591    0.9815438409    0.0184561591          1.4911
Zn96      Zn    0.5184561591    1.0184561591   -0.0184561591          1.4948
O97        O    0.5000000000    1.0000000000    0.0000000000         -2.2008
O98        O    0.4506727378    0.9864360729   -0.0135639271         -1.1071
O99        O    0.4864360729    1.0135639271    0.0493272622         -1.1053
O100       O    0.5135639271    0.9506727378    0.0135639271         -1.1004
O101       O    0.4506727378    1.0135639271    0.0135639271         -1.1072
O102       O    0.4864360729    0.9506727378   -0.0135639271         -1.1032
O103       O    0.5135639271    0.9864360729    0.0493272622          -1.109
O104       O    0.5493272622    1.0135639271   -0.0135639271         -1.1029
O105       O    0.4864360729    1.0493272622    0.0135639271         -1.1105
O106       O    0.5493272622    0.9864360729    0.0135639271         -1.1044
O107       O    0.5135639271    1.0493272622   -0.0135639271         -1.1091
O108       O    0.5135639271    1.0135639271   -0.0493272622         -1.1082
O109       O    0.4864360729    0.9864360729   -0.0493272622         -1.1061
C110       C    0.4410232547    1.0000000000    0.0000000000          0.4118
C111       C    0.5000000000    1.0000000000    0.0589767453          0.4167
C112       C    0.5000000000    0.9410232547    0.0000000000          0.4063
C113       C    0.5589767453    1.0000000000    0.0000000000          0.4101
C114       C    0.5000000000    1.0589767453    0.0000000000          0.4215
C115       C    0.5000000000    1.0000000000   -0.0589767453           0.412
Zn116     Zn    0.4815438409    1.0184561591    0.5184561591          1.4972
Zn117     Zn    0.4815438409    0.9815438409    0.4815438409          1.4936
Zn118     Zn    0.5184561591    1.0184561591    0.4815438409          1.4911
Zn119     Zn    0.5184561591    0.9815438409    0.5184561591          1.4948
O120       O    0.5000000000    1.0000000000    0.5000000000         -2.2008
O121       O    0.4506727378    1.0135639271    0.5135639271         -1.1071
O122       O    0.4864360729    0.9864360729    0.4506727378         -1.1053
O123       O    0.5135639271    1.0493272622    0.4864360729         -1.1004
O124       O    0.4506727378    0.9864360729    0.4864360729         -1.1072
O125       O    0.4864360729    1.0493272622    0.5135639271         -1.1032
O126       O    0.5135639271    1.0135639271    0.4506727378          -1.109
O127       O    0.5493272622    0.9864360729    0.5135639271         -1.1029
O128       O    0.4864360729    0.9506727378    0.4864360729         -1.1105
O129       O    0.5493272622    1.0135639271    0.4864360729         -1.1044
O130       O    0.5135639271    0.9506727378    0.5135639271         -1.1091
O131       O    0.5135639271    0.9864360729    0.5493272622         -1.1082
O132       O    0.4864360729    1.0135639271    0.5493272622         -1.1061
C133       C    0.4410232547    1.0000000000    0.5000000000          0.4118
C134       C    0.5000000000    1.0000000000    0.4410232547          0.4167
C135       C    0.5000000000    1.0589767453    0.5000000000          0.4063
C136       C    0.5589767453    1.0000000000    0.5000000000          0.4101
C137       C    0.5000000000    0.9410232547    0.5000000000          0.4215
C138       C    0.5000000000    1.0000000000    0.5589767453           0.412
Zn139     Zn    0.4815438409    0.5184561591   -0.0184561591          1.4972
Zn140     Zn    0.4815438409    0.4815438409    0.0184561591          1.4936
Zn141     Zn    0.5184561591    0.4815438409   -0.0184561591          1.4911
Zn142     Zn    0.5184561591    0.5184561591    0.0184561591          1.4948
O143       O    0.5000000000    0.5000000000    0.0000000000         -2.2008
O144       O    0.4506727378    0.5135639271   -0.0135639271         -1.1071
O145       O    0.4864360729    0.4506727378    0.0135639271         -1.1053
O146       O    0.5135639271    0.4864360729   -0.0493272622         -1.1004
O147       O    0.4506727378    0.4864360729    0.0135639271         -1.1072
O148       O    0.4864360729    0.5135639271   -0.0493272622         -1.1032
O149       O    0.5135639271    0.4506727378   -0.0135639271          -1.109
O150       O    0.5493272622    0.5135639271    0.0135639271         -1.1029
O151       O    0.4864360729    0.4864360729    0.0493272622         -1.1105
O152       O    0.5493272622    0.4864360729   -0.0135639271         -1.1044
O153       O    0.5135639271    0.5135639271    0.0493272622         -1.1091
O154       O    0.5135639271    0.5493272622    0.0135639271         -1.1082
O155       O    0.4864360729    0.5493272622   -0.0135639271         -1.1061
C156       C    0.4410232547    0.5000000000    0.0000000000          0.4118
C157       C    0.5000000000    0.4410232547    0.0000000000          0.4167
C158       C    0.5000000000    0.5000000000   -0.0589767453          0.4063
C159       C    0.5589767453    0.5000000000    0.0000000000          0.4101
C160       C    0.5000000000    0.5000000000    0.0589767453          0.4215
C161       C    0.5000000000    0.5589767453    0.0000000000           0.412
Zn162     Zn    0.4815438409    0.5184561591    0.4815438409          1.4972
Zn163     Zn    0.4815438409    0.4815438409    0.5184561591          1.4936
Zn164     Zn    0.5184561591    0.4815438409    0.4815438409          1.4911
Zn165     Zn    0.5184561591    0.5184561591    0.5184561591          1.4948
O166       O    0.5000000000    0.5000000000    0.5000000000         -2.2008
O167       O    0.4506727378    0.5135639271    0.4864360729         -1.1071
O168       O    0.4864360729    0.4506727378    0.5135639271         -1.1053
O169       O    0.5135639271    0.4864360729    0.4506727378         -1.1004
O170       O    0.4506727378    0.4864360729    0.5135639271         -1.1072
O171       O    0.4864360729    0.5135639271    0.4506727378         -1.1032
O172       O    0.5135639271    0.4506727378    0.4864360729          -1.109
O173       O    0.5493272622    0.5135639271    0.5135639271         -1.1029
O174       O    0.4864360729    0.4864360729    0.5493272622         -1.1105
O175       O    0.5493272622    0.4864360729    0.4864360729         -1.1044
O176       O    0.5135639271    0.5135639271    0.5493272622         -1.1091
O177       O    0.5135639271    0.5493272622    0.5135639271         -1.1082
O178       O    0.4864360729    0.5493272622    0.4864360729         -1.1061
C179       C    0.4410232547    0.5000000000    0.5000000000          0.4118
C180       C    0.5000000000    0.4410232547    0.5000000000          0.4167
C181       C    0.5000000000    0.5000000000    0.4410232547          0.4063
C182       C    0.5589767453    0.5000000000    0.5000000000          0.4101
C183       C    0.5000000000    0.5000000000    0.5589767453          0.4215
C184       C    0.5000000000    0.5589767453    0.5000000000           0.412
C1496      C    0.5000000000    0.5000000000   -0.4156731967          0.6365
C1497      C    0.4801696406    0.5046225234   -0.4070469962         -0.3608
C1498      C    0.4764507154    0.5048461547   -0.3857078781         -0.3599
C1499      C    0.4925401844    0.5002333674   -0.3715805266         -0.3615
C1500      C    0.5119801852    0.4926853685   -0.3797703041         -0.3619
C1501      C    0.5167237218    0.4937687251   -0.4017519449          0.6359
C1502      C    0.4891078770    0.5049376194   -0.3501358402          0.6359
H1503      H    0.4602395440    0.5102610332   -0.3803367644         -0.3589
H1504      H    0.4660869643    0.5089785169   -0.4172074370         -0.3596
C1505      C    0.5380151484    0.4888215339   -0.4075726960           0.633
C1506      C    0.5267826459    0.4831715652   -0.3661241735         -0.3595
C1507      C    0.5468351186    0.4779959924   -0.3722365882         -0.3618
C1508      C    0.5526253582    0.4817895174   -0.3926472370          0.6336
H1509      H    0.5231224096    0.4789025680   -0.3491936390         -0.3553
H1510      H    0.5584806790    0.4712395360   -0.3604229043         -0.3605
H1511      H    0.5696646100    0.4786089677   -0.3970755162          0.6307
C1512      C    0.5585531748    0.4733396247   -0.4381702417         -0.3617
H1513      H    0.5634811182    0.4608249421   -0.4262146286          -0.354
H1514      H    0.5731807480    0.4796289268   -0.4465139301          0.6291
H1515      H    0.5476920619    0.4656062440   -0.4502271269         -0.3525
O1516      O    0.5472091241    0.4918892216   -0.4278228257           0.628
N1517      N    0.4697451292    0.5092037819   -0.3413764190         -0.3613
N1518      N    0.4687199813    0.5118532843   -0.3202858165           0.637
C1519      C    0.4861536682    0.5062659512   -0.3085417649          0.6357
N1520      N    0.5049247190    0.5034504402   -0.3185020395           0.632
N1521      N    0.5059070819    0.5107629048   -0.3381048274          0.6264
C1522      C    0.4857997434    0.5043671455   -0.2866318659          0.6371
C1523      C    0.4675603971    0.5101291070   -0.2754811807         -0.3616
C1524      C    0.4672211237    0.5096513355   -0.2536983915         -0.3612
C1525      C    0.4852150797    0.5028761514   -0.2433988476         -0.3618
C1526      C    0.5031750618    0.4964228163   -0.2534987549          0.6375
C1527      C    0.5071652915    0.4920256229   -0.1599195549          -0.361
H1528      H    0.4527709420    0.5159815357   -0.2837037248         -0.3613
H1529      H    0.5188640998    0.4919860744   -0.2833171355           0.636
O1530      O    0.5192793375    0.4898907622   -0.2388631811          0.6372
C1531      C    0.4888938568    0.5012796578   -0.2224681998         -0.3619
C1532      C    0.4753154935    0.5065283872   -0.2065808086         -0.3616
C1533      C    0.5088599244    0.4934564978   -0.2190683284         -0.3623
C1534      C    0.5160063791    0.4901110804   -0.1984532205         -0.3621
C1535      C    0.4821418757    0.5032465690   -0.1863927707         -0.3614
C1536      C    0.5022834540    0.4948056042   -0.1814358155         -0.3614
H1537      H    0.5324210820    0.4834919906   -0.1959196169         -0.3623
H1538      H    0.4699397688    0.5082302519   -0.1743215002         -0.3614
C1539      C    0.5037350715    0.4972180949   -0.2753162126          0.6368
H1540      H    0.4525765773    0.5148534049   -0.2448318895         -0.3606
H1541      H    0.4590690971    0.5133659740   -0.2096271653         -0.3617
N1542      N    0.4913454357    0.4963332285   -0.1462557039         -0.3593
C1543      C    0.4944643873    0.4960612770   -0.1257242019         -0.3602
C1544      C    0.5137828814    0.4906341303   -0.1170193046         -0.3622
N1545      N    0.5302032447    0.4848927058   -0.1297449353          0.6371
C1546      C    0.5267028848    0.4857039525   -0.1511670665         -0.3624
H1547      H    0.5405961712    0.4818246745   -0.1617914477          0.6363
C1548      C    0.4807326207    0.5051443867   -0.0940811470          0.6372
C1549      C    0.5000000000    0.5000000000   -0.0843268033           0.635
N1550      N    0.4775938205    0.5029295685   -0.1149406890         -0.3601
N1551      N    0.5167279077    0.4921597952   -0.0957890289          0.6357
H1552      H    0.4667498667    0.5113175924   -0.0848251936          0.6369
C1439      C    0.5000000000    0.5000000000    0.0843268033          0.6365
C1440      C    0.5026011706    0.5201951675    0.0929530038         -0.3608
C1441      C    0.5024489963    0.5239177013    0.1142921219         -0.3599
C1442      C    0.4994806317    0.5074453721    0.1284194734         -0.3615
C1443      C    0.4939295428    0.4873438465    0.1202296959         -0.3619
C1444      C    0.4954852810    0.4827335884    0.0982480551          0.6359
C1445      C    0.5038151572    0.5113341521    0.1498641598          0.6359
H1446      H    0.5062031102    0.5405919215    0.1196632356         -0.3589
H1447      H    0.5055162247    0.5346450432    0.0827925630         -0.3596
C1448      C    0.4927082915    0.4610520784    0.0924273040           0.633
C1449      C    0.4859554366    0.4716582185    0.1338758265         -0.3595
C1450      C    0.4828264075    0.4511863502    0.1277634118         -0.3618
C1451      C    0.4871839766    0.4458077538    0.1073527630          0.6336
H1452      H    0.4813394043    0.4748697467    0.1508063610         -0.3553
H1453      H    0.4772775734    0.4389193530    0.1395770957         -0.3605
H1454      H    0.4857362495    0.4285347667    0.1029244838          0.6307
C1455      C    0.4793742808    0.4390588021    0.0618297583         -0.3617
H1456      H    0.4674197427    0.4328951241    0.0737853714          -0.354
H1457      H    0.4871052569    0.4251392753    0.0534860699          0.6291
H1458      H    0.4705860301    0.4490855463    0.0497728731         -0.3525
O1459      O    0.4966866298    0.4522139382    0.0721771743           0.628
N1460      N    0.5061088900    0.5310281852    0.1586235810         -0.3613
N1461      N    0.5086416324    0.5323150446    0.1797141835           0.637
C1462      C    0.5048391051    0.5144071548    0.1914582351          0.6357
N1463      N    0.5039290318    0.4954479561    0.1814979605           0.632
N1464      N    0.5113032611    0.4952072946    0.1618951726          0.6264
C1465      C    0.5029143037    0.5145679814    0.2133681341          0.6371
C1466      C    0.5068094037    0.5332950247    0.2245188193         -0.3616
C1467      C    0.5062998824    0.5335844382    0.2463016085         -0.3612
C1468      C    0.5013719929    0.5149994584    0.2566011524         -0.3618
C1469      C    0.4967608920    0.4964807046    0.2465012451          0.6375
C1470      C    0.4927880715    0.4920677759    0.3400804451          -0.361
H1471      H    0.5111420741    0.5485988435    0.2162962752         -0.3613
H1472      H    0.4939273351    0.4804245050    0.2166828645           0.636
O1473      O    0.4918845173    0.4798002851    0.2611368189          0.6372
C1474      C    0.5001542449    0.5111785576    0.2775318002         -0.3619
C1475      C    0.5040083005    0.5252166260    0.2934191914         -0.3616
C1476      C    0.4943823942    0.4905259203    0.2809316716         -0.3623
C1477      C    0.4917739762    0.4830787874    0.3015467795         -0.3621
C1478      C    0.5014309121    0.5180943445    0.3136072293         -0.3614
C1479      C    0.4950620818    0.4972048480    0.3185641845         -0.3614
H1480      H    0.4868422830    0.4660807516    0.3040803831         -0.3623
H1481      H    0.5051599224    0.5307364564    0.3256784998         -0.3614
C1482      C    0.4976085432    0.4960036654    0.2246837874          0.6368
H1483      H    0.5100001015    0.5486785644    0.2551681105         -0.3606
H1484      H    0.5091743354    0.5420692244    0.2903728347         -0.3617
N1485      N    0.4954799697    0.5082411178    0.3537442961         -0.3593
C1486      C    0.4955236244    0.5051106368    0.3742757981         -0.3602
C1487      C    0.4920703559    0.4853436677    0.3829806954         -0.3622
N1488      N    0.4880124327    0.4684284216    0.3702550647          0.6371
C1489      C    0.4884669038    0.4719927023    0.3488329335         -0.3624
H1490      H    0.4860070594    0.4577792801    0.3382085523          0.6363
C1491      C    0.5031770969    0.5196876275    0.4059188530          0.6372
C1492      C    0.5000000000    0.5000000000    0.4156731967           0.635
N1493      N    0.5006573249    0.5225873233    0.3850593110         -0.3601
N1494      N    0.4938849587    0.4825673301    0.4042109711          0.6357
H1495      H    0.5079101843    0.5342211666    0.4151748064          0.6369
C1382      C    0.5000000000    0.9156731967    0.5000000000          0.6365
C1383      C    0.4800017657    0.9070469962    0.4961683551         -0.3608
C1384      C    0.4765126670    0.8857078781    0.4948619839         -0.3599
C1385      C    0.4930886208    0.8715805266    0.4971828831         -0.3615
C1386      C    0.5139185565    0.8797703041    0.4981827336         -0.3619
C1387      C    0.5178129868    0.9017519449    0.5010996178          0.6359
C1388      C    0.4880412868    0.8501358402    0.5000872143          0.6359
H1389      H    0.4594996754    0.8803367644    0.4932245757         -0.3589
H1390      H    0.4653638813    0.9172074370    0.4944280135         -0.3596
C1391      C    0.5392781932    0.9075726960    0.5052281117           0.633
C1392      C    0.5313093906    0.8661241735    0.4955024011         -0.3595
C1393      C    0.5517352485    0.8722365882    0.4989189122         -0.3618
C1394      C    0.5554851904    0.8926472370    0.5047374723          0.6336
H1395      H    0.5296989372    0.8491936390    0.4901146273         -0.3553
H1396      H    0.5651212893    0.8604229043    0.4974757584         -0.3605
H1397      H    0.5723472200    0.8970755162    0.5087529371          0.6307
C1398      C    0.5643344259    0.9381702417    0.4994242127         -0.3617
H1399      H    0.5739212224    0.9262146286    0.4899904838          -0.354
H1400      H    0.5751458400    0.9465139301    0.5111132907          0.6291
H1401      H    0.5575513228    0.9502271269    0.4879456039         -0.3525
O1402      O    0.5464332310    0.9278228257    0.5117661029           0.628
N1403      N    0.4686151060    0.8413764190    0.4961198917         -0.3613
N1404      N    0.4666020599    0.8202858165    0.4981244956           0.637
C1405      C    0.4848022087    0.8085417649    0.5001009355          0.6357
N1406      N    0.5030984220    0.8185020395    0.5051534625           0.632
N1407      N    0.5010255747    0.8381048274    0.5122344567          0.6264
C1408      C    0.4852501435    0.7866318659    0.4982220847          0.6371
C1409      C    0.4662428664    0.7754811807    0.4960779368         -0.3616
C1410      C    0.4661269301    0.7536983915    0.4955035407         -0.3612
C1411      C    0.4853215722    0.7433988476    0.4966221494         -0.3618
C1412      C    0.5043544270    0.7534987549    0.4980210541          0.6375
C1413      C    0.5097868407    0.6599195549    0.4956239468          -0.361
H1414      H    0.4503512574    0.7837037248    0.4954178865         -0.3613
H1415      H    0.5204929637    0.7833171355    0.5003401539           0.636
O1416      O    0.5217235644    0.7388631811    0.4985941936          0.6372
C1417      C    0.4893316754    0.7224681998    0.4966577267         -0.3619
C1418      C    0.4747919672    0.7065808086    0.4959380076         -0.3616
C1419      C    0.5107540940    0.7190683284    0.4976198437         -0.3623
C1420      C    0.5186433241    0.6984532205    0.4974659578         -0.3621
C1421      C    0.4823628880    0.6863927707    0.4957122156         -0.3614
C1422      C    0.5041966512    0.6814358155    0.4961810959         -0.3614
H1423      H    0.5363314776    0.6959196169    0.4980856696         -0.3623
H1424      H    0.4691884344    0.6743215002    0.4953093736         -0.3614
C1425      C    0.5045430870    0.7753162126    0.4989752482          0.6368
H1426      H    0.4506319268    0.7448318895    0.4943080750         -0.3606
H1427      H    0.4571688487    0.7096271653    0.4955863228         -0.3617
N1428      N    0.4935812245    0.6462557039    0.4931337042         -0.3593
C1429      C    0.4965417123    0.6257242019    0.4941521976         -0.3602
C1430      C    0.5163990756    0.6170193046    0.4970406670         -0.3622
N1431      N    0.5337358723    0.6297449353    0.4984646652          0.6371
C1432      C    0.5302077887    0.6511670665    0.4977840278         -0.3624
H1433      H    0.5444789602    0.6617914477    0.4998830444          0.6363
C1434      C    0.4803042081    0.5940811470    0.4968739163          0.6372
C1435      C    0.5000000000    0.5843268033    0.5000000000           0.635
N1436      N    0.4783357706    0.6149406890    0.4935750164         -0.3601
N1437      N    0.5184703989    0.5957890289    0.4996311212          0.6357
H1438      H    0.4650194334    0.5848251936    0.4968346854          0.6369
C1325      C    0.5000000000    1.0843268033    0.5000000000          0.6365
C1326      C    0.5196144025    1.0929530038    0.5054668173         -0.3608
C1327      C    0.5233203526    1.1142921219    0.5058493741         -0.3599
C1328      C    0.5074429977    1.1284194734    0.5005523541         -0.3615
C1329      C    0.4883437754    1.1202296959    0.4921794438         -0.3619
C1330      C    0.4835582272    1.0982480551    0.4930588355          0.6359
C1331      C    0.5106708697    1.1498641598    0.5053991637          0.6359
H1332      H    0.5392849774    1.1196632356    0.5119529583         -0.3589
H1333      H    0.5334977907    1.0827925630    0.5104214094         -0.3596
C1334      C    0.4624979880    1.0924273040    0.4872051297           0.633
C1335      C    0.4739619612    1.1338758265    0.4820409669         -0.3595
C1336      C    0.4541493134    1.1277634118    0.4760121026         -0.3618
C1337      C    0.4482020546    1.1073527630    0.4795543928          0.6336
H1338      H    0.4778015126    1.1508063610    0.4779324985         -0.3553
H1339      H    0.4428035231    1.1395770957    0.4687635287         -0.3605
H1340      H    0.4313145023    1.1029244838    0.4756476580          0.6307
C1341      C    0.4426412324    1.0618297583    0.4708585919         -0.3617
H1342      H    0.4382532971    1.0737853714    0.4581445079          -0.354
H1343      H    0.4277579414    1.0534860699    0.4765162298          0.6291
H1344      H    0.4538233039    1.0497728731    0.4635970337         -0.3525
O1345      O    0.4531811686    1.0721771743    0.4898766038           0.628
N1346      N    0.5298333374    1.1586235810    0.5104899377         -0.3613
N1347      N    0.5307441759    1.1797141835    0.5131808789           0.637
C1348      C    0.5135655344    1.1914582351    0.5068526875          0.6357
N1349      N    0.4949321495    1.1814979605    0.5032365546           0.632
N1350      N    0.4936377909    1.1618951726    0.5105002872          0.6264
C1351      C    0.5140003837    1.2133681341    0.5049707651          0.6371
C1352      C    0.5319764745    1.2245188193    0.5115078985         -0.3616
C1353      C    0.5323358806    1.2463016085    0.5110450819         -0.3612
C1354      C    0.5146483105    1.2566011524    0.5035061539         -0.3618
C1355      C    0.4969809114    1.2465012451    0.4962902338          0.6375
C1356      C    0.4931824892    1.3400804451    0.4917263285          -0.361
H1357      H    0.5465019627    1.2162962752    0.5179877978         -0.3613
H1358      H    0.4814960879    1.2166828645    0.4911862322           0.636
O1359      O    0.4811708875    1.2611368189    0.4890750714          0.6372
C1360      C    0.5110412156    1.2775318002    0.5017537101         -0.3619
C1361      C    0.5243825531    1.2934191914    0.5075786412         -0.3616
C1362      C    0.4914281823    1.2809316716    0.4930833808         -0.3623
C1363      C    0.4844314210    1.3015467795    0.4894352354         -0.3621
C1364      C    0.5177028499    1.3136072293    0.5040077325         -0.3614
C1365      C    0.4979409021    1.3185641845    0.4947126542         -0.3614
H1366      H    0.4683149784    1.3040803831    0.4821198339         -0.3623
H1367      H    0.5296805327    1.3256784998    0.5095089709         -0.3614
C1368      C    0.4963873852    1.2246837874    0.4970608216          0.6368
H1369      H    0.5467444213    1.2551681105    0.5168690170         -0.3606
H1370      H    0.5403214940    1.2903728347    0.5151051379         -0.3617
N1371      N    0.5088035364    1.3537442961    0.4967069098         -0.3593
C1372      C    0.5056990780    1.3742757981    0.4963017495         -0.3602
C1373      C    0.4866305013    1.3829806954    0.4900529482         -0.3622
N1374      N    0.4704708487    1.3702550647    0.4836141660          0.6371
C1375      C    0.4739332900    1.3488329335    0.4845744477         -0.3624
H1376      H    0.4602187199    1.3382085523    0.4801042384          0.6363
C1377      C    0.5190296078    1.4059188530    0.5059641132          0.6372
C1378      C    0.5000000000    1.4156731967    0.5000000000           0.635
N1379      N    0.5222603038    1.3850593110    0.5038856305         -0.3601
N1380      N    0.4836228901    1.4042109711    0.4914512000          0.6357
H1381      H    0.5327354080    1.4151748064    0.5127299774          0.6369
C1268      C    0.5000000000    0.5843268033    0.0000000000          0.6365
C1269      C    0.4805553734    0.5929530038    0.0060429608         -0.3608
C1270      C    0.4772341608    0.6142921219    0.0077311438         -0.3599
C1271      C    0.4934468184    0.6284194734    0.0035719911         -0.3615
C1272      C    0.5140344616    0.6202296959    0.0002501145         -0.3619
C1273      C    0.5175784488    0.5982480551   -0.0030837955          0.6359
C1274      C    0.4881064787    0.6498641598    0.0012500321          0.6359
H1275      H    0.4605108061    0.6196632356    0.0112599392         -0.3589
H1276      H    0.4662037476    0.5827925630    0.0094085640         -0.3596
C1277      C    0.5384476739    0.5924273040   -0.0095857177           0.633
C1278      C    0.5316159119    0.6338758265    0.0009697685         -0.3595
C1279      C    0.5515318844    0.6277634118   -0.0047084582         -0.3618
C1280      C    0.5546079502    0.6073527630   -0.0109097101          0.6336
H1281      H    0.5306177756    0.6508063610    0.0065037897         -0.3553
H1282      H    0.5649953505    0.6395770957   -0.0047705892         -0.3605
H1283      H    0.5709154787    0.6029244838   -0.0167847857          0.6307
C1284      C    0.5639956273    0.5618297583   -0.0066188808         -0.3617
H1285      H    0.5745768138    0.5737853714    0.0016841548          -0.354
H1286      H    0.5734327295    0.5534860699   -0.0194431671          0.6291
H1287      H    0.5585380667    0.5497728731    0.0055459860         -0.3525
O1288      O    0.5448270820    0.5721771743   -0.0168825011           0.628
N1289      N    0.4692454864    0.6586235810    0.0073638784         -0.3613
N1290      N    0.4670209882    0.6797141835    0.0055968473           0.637
C1291      C    0.4848861650    0.6914582351    0.0015984488          0.6357
N1292      N    0.5025029708    0.6814979605   -0.0054674978           0.632
N1293      N    0.4996516264    0.6618951726   -0.0122724232          0.6264
C1294      C    0.4855413036    0.7133681341    0.0034154572          0.6371
C1295      C    0.4668928023    0.7245188193    0.0076707305         -0.3616
C1296      C    0.4668417963    0.7463016085    0.0082544859         -0.3612
C1297      C    0.4857911194    0.7566011524    0.0049973823         -0.3618
C1298      C    0.5045483386    0.7465012451    0.0014798232          0.6375
C1299      C    0.5102146492    0.8400804451    0.0032546941          -0.361
H1300      H    0.4511745575    0.7162962752    0.0101029487         -0.3613
H1301      H    0.5203265214    0.7166828645   -0.0026286486           0.636
O1302      O    0.5217445673    0.7611368189   -0.0010311815          0.6372
C1303      C    0.4897721162    0.7775318002    0.0045137937         -0.3619
C1304      C    0.4754039700    0.7934191914    0.0068541964         -0.3616
C1305      C    0.5109527473    0.7809316716    0.0011631887         -0.3623
C1306      C    0.5188097396    0.8015467795    0.0004342818         -0.3621
C1307      C    0.4829526851    0.8136072293    0.0062323245         -0.3614
C1308      C    0.5045972152    0.8185641845    0.0033258867         -0.3614
H1309      H    0.5363177795    0.8040803831   -0.0021586616         -0.3623
H1310      H    0.4699058187    0.8256784998    0.0081052329         -0.3614
C1311      C    0.5046291602    0.7246837874    0.0005105210          0.6368
H1312      H    0.4515775186    0.7551681105    0.0111744332         -0.3606
H1313      H    0.4579305985    0.7903728347    0.0091735232         -0.3617
N1314      N    0.4943889370    0.8537442961    0.0075407340         -0.3593
C1315      C    0.4972170293    0.8742757981    0.0061977109         -0.3602
C1316      C    0.5166270923    0.8829806954    0.0011077612         -0.3622
N1317      N    0.5336960771    0.8702550647   -0.0022451552          0.6371
C1318      C    0.5302661817    0.8488329335   -0.0011744272         -0.3624
H1319      H    0.5442133012    0.8382085523   -0.0048554680          0.6363
C1320      C    0.4807770555    0.9059188530    0.0053080152          0.6372
C1321      C    0.5000000000    0.9156731967    0.0000000000           0.635
N1322      N    0.4791896921    0.8850593110    0.0088062668         -0.3601
N1323      N    0.5183958843    0.9042109711   -0.0016979844          0.6357
H1324      H    0.4655924495    0.9151748064    0.0070554748          0.6369
C1211      C    0.5000000000    1.4156731967    0.0000000000          0.6365
C1212      C    0.4861173658    1.4070469962    0.0148957492         -0.3608
C1213      C    0.4831551318    1.3857078781    0.0171553035         -0.3599
C1214      C    0.4939380169    1.3715805266    0.0043538111         -0.3615
C1215      C    0.5058651841    1.3797703041   -0.0127525796         -0.3619
C1216      C    0.5104067767    1.4017519449   -0.0144986433          0.6359
C1217      C    0.4937123934    1.3501358402    0.0101727298          0.6359
H1218      H    0.4727185266    1.3803367644    0.0306904525         -0.3589
H1219      H    0.4768570414    1.4172074370    0.0263649620         -0.3596
C1220      C    0.5253211333    1.4075726960   -0.0304786781           0.633
C1221      C    0.5128466297    1.3661241735   -0.0289045056         -0.3595
C1222      C    0.5266052142    1.3722365882   -0.0443831867         -0.3618
C1223      C    0.5335270117    1.3926472370   -0.0444633500          0.6336
H1224      H    0.5074277156    1.3491936390   -0.0304068496         -0.3553
H1225      H    0.5325039148    1.3604229043   -0.0564858357         -0.3605
H1226      H    0.5458969905    1.3970755162   -0.0566056571          0.6307
C1227      C    0.5337352434    1.4381702417   -0.0547830562         -0.3617
H1228      H    0.5308467127    1.4262146286   -0.0679192009          -0.354
H1229      H    0.5493844088    1.4465139301   -0.0577198637          0.6291
H1230      H    0.5204071646    1.4502271269   -0.0551453611         -0.3525
O1231      O    0.5346634734    1.4278228257   -0.0330594878           0.628
N1232      N    0.4800191756    1.3413764190    0.0245119046         -0.3613
N1233      N    0.4806457802    1.3202858165    0.0272828535           0.637
C1234      C    0.4920009792    1.3085417649    0.0129227982          0.6357
N1235      N    0.5060120325    1.3185020395    0.0001177276           0.632
N1236      N    0.5109053848    1.3381048274    0.0056397090          0.6264
C1237      C    0.4906482955    1.2866318659    0.0115440405          0.6371
C1238      C    0.4787217323    1.2754811807    0.0264983391         -0.3616
C1239      C    0.4781736758    1.2536983915    0.0262909600         -0.3612
C1240      C    0.4893315074    1.2433988476    0.0106324682         -0.3618
C1241      C    0.5006406234    1.2534987549   -0.0047399222          0.6375
C1242      C    0.5015005950    1.1599195549   -0.0106150981          -0.361
H1243      H    0.4697092504    1.2837037248    0.0396038369         -0.3613
H1244      H    0.5111893000    1.2833171355   -0.0171719780           0.636
O1245      O    0.5103654851    1.2388631811   -0.0191427861          0.6372
C1246      C    0.4914948144    1.2224681998    0.0072557397         -0.3619
C1247      C    0.4831509524    1.2065808086    0.0191847411         -0.3616
C1248      C    0.5037052021    1.2190683284   -0.0103724230         -0.3623
C1249      C    0.5077715846    1.1984532205   -0.0171346834         -0.3621
C1250      C    0.4869871213    1.1863927707    0.0126537664         -0.3614
C1251      C    0.4989986642    1.1814358155   -0.0055850906         -0.3614
H1252      H    0.5177055837    1.1959196169   -0.0317829079         -0.3623
H1253      H    0.4796378323    1.1743215002    0.0235952681         -0.3614
C1254      C    0.5015489688    1.2753162126   -0.0043920896          0.6368
H1255      H    0.4689187927    1.2448318895    0.0387758071         -0.3606
H1256      H    0.4734785071    1.2096271653    0.0339204730         -0.3617
N1257      N    0.4907713160    1.1462557039    0.0017827193         -0.3593
C1258      C    0.4932085869    1.1257242019   -0.0001823577         -0.3602
C1259      C    0.5062176273    1.1170193046   -0.0154605447         -0.3622
N1260      N    0.5166457710    1.1297449353   -0.0293834076          0.6371
C1261      C    0.5141926545    1.1511670665   -0.0267579818         -0.3624
H1262      H    0.5235616223    1.1617914477   -0.0377258735          0.6363
C1263      C    0.4868757019    1.0940811470    0.0150149732          0.6372
C1264      C    0.5000000000    1.0843268033    0.0000000000           0.635
N1265      N    0.4830351633    1.1149406890    0.0149269409         -0.3601
N1266      N    0.5095130023    1.0957890289   -0.0158364925          0.6357
H1267      H    0.4787117207    1.0848251936    0.0279368649          0.6369
C1154      C    0.5000000000    1.0000000000   -0.0843268033          0.6365
C1155      C    0.4801696406    0.9953774766   -0.0929530038         -0.3608
C1156      C    0.4764507154    0.9951538453   -0.1142921219         -0.3599
C1157      C    0.4925401844    0.9997666326   -0.1284194734         -0.3615
C1158      C    0.5119801852    1.0073146315   -0.1202296959         -0.3619
C1159      C    0.5167237218    1.0062312749   -0.0982480551          0.6359
C1160      C    0.4891078770    0.9950623806   -0.1498641598          0.6359
H1161      H    0.4602395440    0.9897389668   -0.1196632356         -0.3589
H1162      H    0.4660869643    0.9910214831   -0.0827925630         -0.3596
C1163      C    0.5380151484    1.0111784661   -0.0924273040           0.633
C1164      C    0.5267826459    1.0168284348   -0.1338758265         -0.3595
C1165      C    0.5468351186    1.0220040076   -0.1277634118         -0.3618
C1166      C    0.5526253582    1.0182104826   -0.1073527630          0.6336
H1167      H    0.5231224096    1.0210974320   -0.1508063610         -0.3553
H1168      H    0.5584806790    1.0287604640   -0.1395770957         -0.3605
H1169      H    0.5696646100    1.0213910323   -0.1029244838          0.6307
C1170      C    0.5585531748    1.0266603753   -0.0618297583         -0.3617
H1171      H    0.5634811182    1.0391750579   -0.0737853714          -0.354
H1172      H    0.5731807480    1.0203710732   -0.0534860699          0.6291
H1173      H    0.5476920619    1.0343937560   -0.0497728731         -0.3525
O1174      O    0.5472091241    1.0081107784   -0.0721771743           0.628
N1175      N    0.4697451292    0.9907962181   -0.1586235810         -0.3613
N1176      N    0.4687199813    0.9881467157   -0.1797141835           0.637
C1177      C    0.4861536682    0.9937340488   -0.1914582351          0.6357
N1178      N    0.5049247190    0.9965495598   -0.1814979605           0.632
N1179      N    0.5059070819    0.9892370952   -0.1618951726          0.6264
C1180      C    0.4857997434    0.9956328545   -0.2133681341          0.6371
C1181      C    0.4675603971    0.9898708930   -0.2245188193         -0.3616
C1182      C    0.4672211237    0.9903486645   -0.2463016085         -0.3612
C1183      C    0.4852150797    0.9971238486   -0.2566011524         -0.3618
C1184      C    0.5031750618    1.0035771837   -0.2465012451          0.6375
C1185      C    0.5071652915    1.0079743771   -0.3400804451          -0.361
H1186      H    0.4527709420    0.9840184643   -0.2162962752         -0.3613
H1187      H    0.5188640998    1.0080139256   -0.2166828645           0.636
O1188      O    0.5192793375    1.0101092378   -0.2611368189          0.6396
C1189      C    0.4888938568    0.9987203422   -0.2775318002         -0.3619
C1190      C    0.4753154935    0.9934716128   -0.2934191914         -0.3616
C1191      C    0.5088599244    1.0065435022   -0.2809316716         -0.3623
C1192      C    0.5160063791    1.0098889196   -0.3015467795         -0.3621
C1193      C    0.4821418757    0.9967534310   -0.3136072293         -0.3614
C1194      C    0.5022834540    1.0051943958   -0.3185641845         -0.3614
H1195      H    0.5324210820    1.0165080094   -0.3040803831         -0.3623
H1196      H    0.4699397688    0.9917697481   -0.3256784998         -0.3614
C1197      C    0.5037350715    1.0027819051   -0.2246837874          0.6368
H1198      H    0.4525765773    0.9851465951   -0.2551681105         -0.3606
H1199      H    0.4590690971    0.9866340260   -0.2903728347         -0.3617
N1200      N    0.4913454357    1.0036667715   -0.3537442961         -0.3593
C1201      C    0.4944643873    1.0039387230   -0.3742757981         -0.3602
C1202      C    0.5137828814    1.0093658697   -0.3829806954         -0.3622
N1203      N    0.5302032447    1.0151072942   -0.3702550647          0.6371
C1204      C    0.5267028848    1.0142960475   -0.3488329335         -0.3624
H1205      H    0.5405961712    1.0181753255   -0.3382085523          0.6363
C1206      C    0.4807326207    0.9948556133   -0.4059188530          0.6372
C1207      C    0.5000000000    1.0000000000   -0.4156731967           0.635
N1208      N    0.4775938205    0.9970704315   -0.3850593110         -0.3601
N1209      N    0.5167279077    1.0078402048   -0.4042109711          0.6357
H1210      H    0.4667498667    0.9886824076   -0.4151748064          0.6369
C1097      C    0.5000000000    1.0000000000    0.4156731967          0.6365
C1098      C    0.4799185539    1.0033684417    0.4070469962         -0.3608
C1099      C    0.4764001955    1.0045938273    0.3857078781         -0.3599
C1100      C    0.4930253604    1.0026566354    0.3715805266         -0.3615
C1101      C    0.5138728400    1.0021384532    0.3797703041         -0.3619
C1102      C    0.5178336423    0.9993123523    0.4017519449          0.6359
C1103      C    0.4880464965    0.9996364308    0.3501358402          0.6359
H1104      H    0.4593539059    1.0058376105    0.3803367644         -0.3589
H1105      H    0.4652443581    1.0047700219    0.4172074370         -0.3596
C1106      C    0.5393885292    0.9956810442    0.4075726960           0.633
C1107      C    0.5311970839    1.0052199898    0.3661241735         -0.3595
C1108      C    0.5516964452    1.0022764538    0.3722365882         -0.3618
C1109      C    0.5555798584    0.9965461128    0.3926472370          0.6336
H1110      H    0.5294625436    1.0105691054    0.3491936390         -0.3553
H1111      H    0.5650455578    1.0040285873    0.3604229043         -0.3605
H1112      H    0.5725301858    0.9929214194    0.3970755162          0.6307
C1113      C    0.5643039355    1.0020624682    0.4381702417         -0.3617
H1114      H    0.5736701482    1.0117152381    0.4262146286          -0.354
H1115      H    0.5753826085    0.9906263753    0.4465139301          0.6291
H1116      H    0.5572573616    1.0133812467    0.4502271269         -0.3525
O1117      O    0.5466927557    0.9893101595    0.4278228257           0.628
N1118      N    0.4685338155    1.0031537347    0.3413764190         -0.3613
N1119      N    0.4665676355    1.0011031427    0.3202858165           0.637
C1120      C    0.4848086007    0.9995478548    0.3085417649          0.6357
N1121      N    0.5032166963    0.9949195217    0.3185020395           0.632
N1122      N    0.5013080517    0.9877925131    0.3381048274          0.6264
C1123      C    0.4852129937    1.0014365560    0.2866318659          0.6371
C1124      C    0.4661612399    1.0031408536    0.2754811807         -0.3616
C1125      C    0.4660320597    1.0037124168    0.2536983915         -0.3612
C1126      C    0.4852474272    1.0030377148    0.2433988476         -0.3618
C1127      C    0.5043075284    1.0020790526    0.2534987549          0.6375
C1128      C    0.5096830916    1.0046010684    0.1599195549          -0.361
H1129      H    0.4502586210    1.0034334562    0.2837037248         -0.3613
H1130      H    0.5204953514    1.0001335504    0.2833171355           0.636
O1131      O    0.5216852725    1.0019074848    0.2388631811          0.6372
C1132      C    0.4892572815    1.0030948246    0.2224681998         -0.3619
C1133      C    0.4747048234    1.0034783239    0.2065808086         -0.3616
C1134      C    0.5106962138    1.0026280587    0.2190683284         -0.3623
C1135      C    0.5185797802    1.0029642318    0.1984532205         -0.3621
C1136      C    0.4822685037    1.0038790274    0.1863927707         -0.3614
C1137      C    0.5041072715    1.0039148731    0.1814358155         -0.3614
H1138      H    0.5362775315    1.0027534769    0.1959196169         -0.3623
H1139      H    0.4690882589    1.0039772866    0.1743215002         -0.3614
C1140      C    0.5045181905    1.0011294735    0.2753162126          0.6368
H1141      H    0.4505135666    1.0045494577    0.2448318895         -0.3606
H1142      H    0.4570782840    1.0034226264    0.2096271653         -0.3617
N1143      N    0.4934242517    1.0067161173    0.1462557039         -0.3593
C1144      C    0.4964074873    1.0057663159    0.1257242019         -0.3602
C1145      C    0.5163263023    1.0033375421    0.1170193046         -0.3622
N1146      N    0.5336913784    1.0023145954    0.1297449353          0.6371
C1147      C    0.5301485070    1.0029135134    0.1511670665         -0.3624
H1148      H    0.5444643771    1.0011448788    0.1617914477          0.6363
C1149      C    0.4802372217    1.0026700587    0.0940811470          0.6372
C1150      C    0.5000000000    1.0000000000    0.0843268033           0.635
N1151      N    0.4781930690    1.0059225849    0.1149406890         -0.3601
N1152      N    0.5184569404    1.0007956502    0.0957890289          0.6357
H1153      H    0.4649556228    1.0023560323    0.0848251936          0.6369
C1040      C    0.9156731967    0.5000000000    0.5000000000          0.6365
C1041      C    0.9070469962    0.5173815359    0.4893937242         -0.3608
C1042      C    0.8857078781    0.5201902416    0.4869459522         -0.3599
C1043      C    0.8715805266    0.5054831183    0.4949365305         -0.3615
C1044      C    0.8797703041    0.4863289685    0.5031830125         -0.3619
C1045      C    0.9017519449    0.4837059189    0.5072811110          0.6359
C1046      C    0.8501358402    0.5112286858    0.4958847789          0.6359
H1047      H    0.8803367644    0.5355464747    0.4794420138         -0.3589
H1048      H    0.9172074370    0.5304776066    0.4826269389         -0.3596
C1049      C    0.9075726960    0.4650548963    0.5186801859           0.633
C1050      C    0.8661241735    0.4691036224    0.5067764437         -0.3595
C1051      C    0.8722365882    0.4511759716    0.5171440640         -0.3618
C1052      C    0.8926472370    0.4497065579    0.5239085692          0.6336
H1053      H    0.8491936390    0.4687208136    0.5011661741         -0.3553
H1054      H    0.8604229043    0.4381348791    0.5204905082         -0.3605
H1055      H    0.8970755162    0.4353262593    0.5335863278          0.6307
C1056      C    0.9381702417    0.4395555003    0.5220388827         -0.3617
H1057      H    0.9262146286    0.4272677234    0.5165696555          -0.354
H1058      H    0.9465139301    0.4335340075    0.5367787213          0.6291
H1059      H    0.9502271269    0.4418787671    0.5089098545         -0.3525
O1060      O    0.9278228257    0.4606494513    0.5273133747           0.628
N1061      N    0.8413764190    0.5280269378    0.4853522163         -0.3613
N1062      N    0.8202858165    0.5306154559    0.4865228424           0.637
C1063      C    0.8085417649    0.5142665574    0.4947608790          0.6357
N1064      N    0.8185020395    0.4989072515    0.5059130614           0.632
N1065      N    0.8381048274    0.5033333169    0.5118162064          0.6264
C1066      C    0.7866318659    0.5131877343    0.4931587346          0.6371
C1067      C    0.7754811807    0.5302335669    0.4844803968         -0.3616
C1068      C    0.7536983915    0.5301405458    0.4839018477         -0.3612
C1069      C    0.7433988476    0.5125593545    0.4916856311         -0.3618
C1070      C    0.7534987549    0.4952280294    0.4996751032          0.6375
C1071      C    0.6599195549    0.4892998846    0.4993369596          -0.361
H1072      H    0.7837037248    0.5448827450    0.4782851985         -0.3613
H1073      H    0.7833171355    0.4809298698    0.5075104858           0.636
O1074      O    0.7388631811    0.4791648000    0.5063074546          0.6372
C1075      C    0.7224681998    0.5088168001    0.4931262837         -0.3619
C1076      C    0.7065808086    0.5221791246    0.4873496589         -0.3616
C1077      C    0.7190683284    0.4890946099    0.5015453631         -0.3623
C1078      C    0.6984532205    0.4816531690    0.5041699757         -0.3621
C1079      C    0.6863927707    0.5150105117    0.4897952289         -0.3614
C1080      C    0.6814358155    0.4947300399    0.4978968046         -0.3614
H1081      H    0.6959196169    0.4653075590    0.5109578952         -0.3623
H1082      H    0.6743215002    0.5272056262    0.4847944598         -0.3614
C1083      C    0.7753162126    0.4953862418    0.5006348155          0.6368
H1084      H    0.7448318895    0.5442304414    0.4773444771         -0.3606
H1085      H    0.7096271653    0.5385578998    0.4808355424         -0.3617
N1086      N    0.6462557039    0.5036007949    0.4913177784         -0.3593
C1087      C    0.6257242019    0.5011860476    0.4933104680         -0.3602
C1088      C    0.6170193046    0.4836054168    0.5029841207         -0.3622
N1089      N    0.6297449353    0.4678710784    0.5104018619          0.6371
C1090      C    0.6511670665    0.4709358894    0.5085263421         -0.3624
H1091      H    0.6617914477    0.4583090833    0.5155002917          0.6363
C1092      C    0.5940811470    0.5173459458    0.4901605497          0.6372
C1093      C    0.5843268033    0.5000000000    0.5000000000           0.635
N1094      N    0.6149406890    0.5180314379    0.4863806572         -0.3601
N1095      N    0.5957890289    0.4825749553    0.5061367359          0.6357
H1096      H    0.5848251936    0.5316447629    0.4847596508          0.6369
C983       C    1.0843268033    0.5000000000    0.5000000000          0.6365
C984       C    1.0929530038    0.4800789584    0.5042146151         -0.3608
C985       C    1.1142921219    0.4763562273    0.5043618840         -0.3599
C986       C    1.1284194734    0.4925369663    0.5000802368         -0.3615
C987       C    1.1202296959    0.5121277646    0.4929327518         -0.3619
C988       C    1.0982480551    0.5168480710    0.4941132215          0.6359
C989       C    1.1498641598    0.4890088467    0.5047130646          0.6359
H990       H    1.1196632356    0.4600373519    0.5094429559         -0.3589
H991       H    1.0827925630    0.4659098591    0.5082807034         -0.3596
C992       C    1.0924273040    0.5382365345    0.4896039893           0.633
C993       C    1.1338758265    0.5271223392    0.4837247103         -0.3595
C994       C    1.1277634118    0.5472767963    0.4789617203         -0.3618
C995       C    1.1073527630    0.5529879704    0.4828732668          0.6336
H996       H    1.1508063610    0.5235504769    0.4793815010         -0.3553
H997       H    1.1395770957    0.5590585524    0.4724456629         -0.3605
H998       H    1.1029244838    0.5700889017    0.4800430460          0.6307
C999       C    1.0618297583    0.5590879374    0.4745467970         -0.3617
H1000      H    1.0737853714    0.5642716545    0.4621358750          -0.354
H1001      H    1.0534860699    0.5735833689    0.4811349443          0.6291
H1002      H    1.0497728731    0.5483878068    0.4665921660         -0.3525
O1003      O    1.0721771743    0.5473656228    0.4928596988           0.628
N1004      N    1.1586235810    0.4695626310    0.5085809895         -0.3613
N1005      N    1.1797141835    0.4684833292    0.5112088972           0.637
C1006      C    1.1914582351    0.4860280015    0.5059804939          0.6357
N1007      N    1.1814979605    0.5048528762    0.5035507728           0.632
N1008      N    1.1618951726    0.5056849745    0.5108818565          0.6264
C1009      C    1.2133681341    0.4857131162    0.5040748252          0.6371
C1010      C    1.2245188193    0.4673593706    0.5094612873         -0.3616
C1011      C    1.2463016085    0.4670299729    0.5089766542         -0.3612
C1012      C    1.2566011524    0.4851591720    0.5025721473         -0.3618
C1013      C    1.2465012451    0.5032477999    0.4964887244          0.6375
C1014      C    1.3400804451    0.5073274234    0.4921743397          -0.361
H1015      H    1.2162962752    0.4524529332    0.5150089921         -0.3613
H1016      H    1.2166828645    0.5190245797    0.4923748684           0.636
O1017      O    1.2611368189    0.5194827275    0.4902885185          0.6372
C1018      C    1.2775318002    0.4888699359    0.5010514813         -0.3619
C1019      C    1.2934191914    0.4751867237    0.5060204665         -0.3616
C1020      C    1.2809316716    0.5089923367    0.4936396885         -0.3623
C1021      C    1.3015467795    0.5162059372    0.4904416266         -0.3621
C1022      C    1.3136072293    0.4820790139    0.5028794222         -0.3614
C1023      C    1.3185641845    0.5023895663    0.4948535563         -0.3614
H1024      H    1.3040803831    0.5327530126    0.4841607735         -0.3623
H1025      H    1.3256784998    0.4697772073    0.5076116587         -0.3614
C1026      C    1.2246837874    0.5037913720    0.4972953273          0.6368
H1027      H    1.2551681105    0.4522817596    0.5138771103         -0.3606
H1028      H    1.2903728347    0.4588034355    0.5125232243         -0.3617
N1029      N    1.3537442961    0.4914225032    0.4961564020         -0.3593
C1030      C    1.3742757981    0.4945463787    0.4959485112         -0.3602
C1031      C    1.3829806954    0.5139721742    0.4909189384         -0.3622
N1032      N    1.3702550647    0.5305068986    0.4855156819          0.6371
C1033      C    1.3488329335    0.5269906283    0.4862549276         -0.3624
H1034      H    1.3382085523    0.5409605951    0.4826615679          0.6363
C1035      C    1.4059188530    0.4806311110    0.5047479213          0.6372
C1036      C    1.4156731967    0.5000000000    0.5000000000           0.635
N1037      N    1.3850593110    0.4775384216    0.5024691587         -0.3601
N1038      N    1.4042109711    0.5168852726    0.4925047162          0.6357
H1039      H    1.4151748064    0.4665246222    0.5106328897          0.6369
C926       C    0.5843268033    0.5000000000    0.0000000000          0.6365
C927       C    0.5929530038    0.4857683086    0.0145626178         -0.3608
C928       C    0.6142921219    0.4827533662    0.0167513475         -0.3599
C929       C    0.6284194734    0.4938365553    0.0042089499         -0.3615
C930       C    0.6202296959    0.5061657099   -0.0126100235         -0.3619
C931       C    0.5982480551    0.5107474003   -0.0142479838          0.6359
C932       C    0.6498641598    0.4934731158    0.0100208887          0.6359
H933       H    0.6196632356    0.4719989757    0.0300354008         -0.3589
H934       H    0.5827925630    0.4762388211    0.0258091869         -0.3596
C935       C    0.5924273040    0.5260362167   -0.0298701362           0.633
C936       C    0.6338758265    0.5135279155   -0.0285919891         -0.3595
C937       C    0.6277634118    0.5276494045   -0.0437403145         -0.3618
C938       C    0.6073527630    0.5345711580   -0.0436564432          0.6336
H939       H    0.6508063610    0.5081461209   -0.0302223126         -0.3553
H940       H    0.6395770957    0.5338332214   -0.0556997957         -0.3605
H941       H    0.6029244838    0.5472253760   -0.0555022344          0.6307
C942       C    0.5618297583    0.5350238569   -0.0539683179         -0.3617
H943       H    0.5737853714    0.5324473983   -0.0671692182          -0.354
H944       H    0.5534860699    0.5507382162   -0.0565334937          0.6291
H945       H    0.5497728731    0.5217081049   -0.0546463301         -0.3525
O946       O    0.5721771743    0.5354370860   -0.0322288544           0.628
N947       N    0.6586235810    0.4794439756    0.0240315766         -0.3613
N948       N    0.6797141835    0.4800047467    0.0268165949           0.637
C949       C    0.6914582351    0.4916970191    0.0127296330          0.6357
N950       N    0.6814979605    0.5060075550    0.0002601497           0.632
N951       N    0.6618951726    0.5107686900    0.0058965288          0.6264
C952       C    0.7133681341    0.4903773850    0.0113192106          0.6371
C953       C    0.7245188193    0.4780998281    0.0259867104         -0.3616
C954       C    0.7463016085    0.4775568393    0.0257664034         -0.3612
C955       C    0.7566011524    0.4890825662    0.0103766929         -0.3618
C956       C    0.7465012451    0.5007527560   -0.0047234118          0.6375
C957       C    0.8400804451    0.5017516986   -0.0105765611          -0.361
H958       H    0.7162962752    0.4687793416    0.0388749778         -0.3613
H959       H    0.7166828645    0.5115930487   -0.0169020261           0.636
O960       O    0.7611368189    0.5108161634   -0.0188918012          0.6372
C961       C    0.7775318002    0.4913252775    0.0070521720         -0.3619
C962       C    0.7934191914    0.4827011003    0.0187801163         -0.3616
C963       C    0.7809316716    0.5039499365   -0.0102817159         -0.3623
C964       C    0.8015467795    0.5081754091   -0.0169457248         -0.3621
C965       C    0.8136072293    0.4866909438    0.0123418733         -0.3614
C966       C    0.8185641845    0.4991312841   -0.0056072491         -0.3614
H967       H    0.8040803831    0.5184537090   -0.0313544503         -0.3623
H968       H    0.8256784998    0.4790844591    0.0231061615         -0.3614
C969       C    0.7246837874    0.5016526045   -0.0043541536          0.6368
H970       H    0.7551681105    0.4680087261    0.0380284506         -0.3606
H971       H    0.7903728347    0.4726822075    0.0332825222         -0.3617
N972       N    0.8537442961    0.4907316655    0.0015635450         -0.3593
C973       C    0.8742757981    0.4932148146   -0.0003432291         -0.3602
C974       C    0.8829806954    0.5065822194   -0.0153088772         -0.3622
N975       N    0.8702550647    0.5173373376   -0.0289807359          0.6371
C976       C    0.8488329335    0.5148227004   -0.0264141740         -0.3624
H977       H    0.8382085523    0.5244489220   -0.0371569884          0.6363
C978       C    0.9059188530    0.4865236068    0.0146997771          0.6372
C979       C    0.9156731967    0.5000000000    0.0000000000           0.635
N980       N    0.8850593110    0.4826862324    0.0145207679         -0.3601
N981       N    0.9042109711    0.5098855773   -0.0156066355          0.6357
H982       H    0.9151748064    0.4780557333    0.0274245952          0.6369
C869       C    1.0843268033    0.5000000000    0.0000000000          0.6365
C870       C    1.0929530038    0.4940286994    0.0194667523         -0.3608
C871       C    1.1142921219    0.4923527607    0.0227941605         -0.3599
C872       C    1.1284194734    0.4964521701    0.0065662937         -0.3615
C873       C    1.1202296959    0.4996981949   -0.0140334452         -0.3619
C874       C    1.0982480551    0.5030190289   -0.0175896879          0.6359
C875       C    1.1498641598    0.4987937830    0.0118980448          0.6359
H876       H    1.1196632356    0.4888855854    0.0395303991         -0.3589
H877       H    1.0827925630    0.4907159795    0.0338306772         -0.3596
C878       C    1.0924273040    0.5094440407   -0.0384827196           0.633
C879       C    1.1338758265    0.4989137891   -0.0316121256         -0.3595
C880       C    1.1277634118    0.5045186220   -0.0515488772         -0.3618
C881       C    1.1073527630    0.5107085019   -0.0546477629          0.6336
H882       H    1.1508063610    0.4933834818   -0.0305936129         -0.3553
H883       H    1.1395770957    0.5045311634   -0.0650124809         -0.3605
H884       H    1.1029244838    0.5165234732   -0.0709768201          0.6307
C885       C    1.0618297583    0.5063831246   -0.0640195721         -0.3617
H886       H    1.0737853714    0.4980411724   -0.0745701048          -0.354
H887       H    1.0534860699    0.5191725648   -0.0735038452          0.6291
H888       H    1.0497728731    0.4942384419   -0.0585172425         -0.3525
O889       O    1.0721771743    0.5167172777   -0.0448889602           0.628
N890       N    1.1586235810    0.4927494478    0.0307814279         -0.3613
N891       N    1.1797141835    0.4945246603    0.0329994026           0.637
C892       C    1.1914582351    0.4984572299    0.0151196200          0.6357
N893       N    1.1814979605    0.5054582416   -0.0025230920           0.632
N894       N    1.1618951726    0.5122736231    0.0003031690          0.6264
C895       C    1.2133681341    0.4966378208    0.0144711782          0.6371
C896       C    1.2245188193    0.4924512633    0.0331352263         -0.3616
C897       C    1.2463016085    0.4918676997    0.0331883820         -0.3612
C898       C    1.2566011524    0.4950549863    0.0142271907         -0.3618
C899       C    1.2465012451    0.4985034342   -0.0045428572          0.6375
C900       C    1.3400804451    0.4967077050   -0.0102025921          -0.361
H901       H    1.2162962752    0.4900769556    0.0488623229         -0.3613
H902       H    1.2166828645    0.5025537633   -0.0203360654           0.636
O903       O    1.2611368189    0.5009510840   -0.0217482179          0.6372
C904       C    1.2775318002    0.4955239086    0.0102444398         -0.3619
C905       C    1.2934191914    0.4932364431    0.0246211088         -0.3616
C906       C    1.2809316716    0.4987964776   -0.0109483887         -0.3623
C907       C    1.3015467795    0.4994964403   -0.0188080124         -0.3621
C908       C    1.3136072293    0.4938305071    0.0170701544         -0.3614
C909       C    1.3185641845    0.4966572032   -0.0045849340         -0.3614
H910       H    1.3040803831    0.5020248799   -0.0363254840         -0.3623
H911       H    1.3256784998    0.4920056662    0.0301238307         -0.3614
C912       C    1.2246837874    0.4994724322   -0.0046272484          0.6368
H913       H    1.2551681105    0.4890039942    0.0484633110         -0.3606
H914       H    1.2903728347    0.4909814907    0.0421029044         -0.3617
N915       N    1.3537442961    0.4924799841    0.0056387992         -0.3593
C916       C    1.3742757981    0.4938125814    0.0028057795         -0.3602
C917       C    1.3829806954    0.4988310048   -0.0166228994         -0.3622
N918       N    1.3702550647    0.5021210293   -0.0337041179          0.6371
C919       C    1.3488329335    0.5010629417   -0.0302703021         -0.3624
H920       H    1.3382085523    0.5046925869   -0.0442308852          0.6363
C921       C    1.4059188530    0.4947628235    0.0192423648          0.6372
C922       C    1.4156731967    0.5000000000    0.0000000000           0.635
N923       N    1.3850593110    0.4912704423    0.0208426024         -0.3601
N924       N    1.4042109711    0.5016302164   -0.0184020136          0.6357
H925       H    1.4151748064    0.4930713043    0.0344333042          0.6369
C812       C    1.0000000000    0.5000000000   -0.0843268033          0.6365
C813       C    1.0026435819    0.5201896595   -0.0929530038         -0.3608
C814       C    1.0037415574    0.5237498372   -0.1142921219         -0.3599
C815       C    1.0024039158    0.5070657270   -0.1284194734         -0.3615
C816       C    1.0026363147    0.4862131035   -0.1202296959         -0.3619
C817       C    0.9999545832    0.4821531629   -0.0982480551          0.6359
C818       C    0.9992064915    0.5119326767   -0.1498641598          0.6359
H819       H    1.0043710842    0.5408298455   -0.1196632356         -0.3589
H820       H    1.0035161689    0.5349047892   -0.0827925630         -0.3596
C821       C    0.9971013303    0.4604815571   -0.0924273040           0.633
C822       C    1.0063393087    0.4690109777   -0.1338758265         -0.3595
C823       C    1.0041353969    0.4484189650   -0.1277634118         -0.3618
C824       C    0.9985485215    0.4443318474   -0.1073527630          0.6336
H825       H    1.0116225379    0.4709368949   -0.1508063610         -0.3553
H826       H    1.0063667947    0.4351415539   -0.1395770957         -0.3605
H827       H    0.9955361733    0.4272620566   -0.1029244838          0.6307
C828       C    1.0043752600    0.4358119404   -0.0618297583         -0.3617
H829       H    1.0143588425    0.4267991723   -0.0737853714          -0.354
H830       H    0.9933452669    0.4243288891   -0.0534860699          0.6291
H831       H    1.0154331193    0.4432612827   -0.0497728731         -0.3525
O832       O    0.9909974321    0.4529527908   -0.0721771743           0.628
N833       N    1.0020193075    0.5315592967   -0.1586235810         -0.3613
N834       N    0.9998992862    0.5334504077   -0.1797141835           0.637
C835       C    0.9990014496    0.5151652875   -0.1914582351          0.6357
N836       N    0.9950385729    0.4966025545   -0.1814979605           0.632
N837       N    0.9878474939    0.4982534806   -0.1618951726          0.6264
C838       C    1.0009034804    0.5148291258   -0.2133681341          0.6371
C839       C    1.0019210520    0.5339298719   -0.2245188193         -0.3616
C840       C    1.0024875961    0.5340795375   -0.2463016085         -0.3612
C841       C    1.0025048412    0.5148523361   -0.2566011524         -0.3618
C842       C    1.0022327224    0.4957700814   -0.2465012451          0.6375
C843       C    1.0049465567    0.4904887609   -0.3400804451          -0.361
H844       H    1.0016411721    0.5498327198   -0.2162962752         -0.3613
H845       H    1.0008710372    0.4795227307   -0.2166828645           0.636
O846       O    1.0026866446    0.4783974195   -0.2611368189          0.6372
C847       C    1.0027062180    0.5108471344   -0.2775318002         -0.3619
C848       C    1.0025657646    0.5254039672   -0.2934191914         -0.3616
C849       C    1.0030112847    0.4894052916   -0.2809316716         -0.3623
C850       C    1.0036309486    0.4815389297   -0.3015467795         -0.3621
C851       C    1.0032384053    0.5178596065   -0.3136072293         -0.3614
C852       C    1.0040601470    0.4960362749   -0.3185641845         -0.3614
H853       H    1.0040572253    0.4638450577   -0.3040803831         -0.3623
H854       H    1.0028622789    0.5310348499   -0.3256784998         -0.3614
C855       C    1.0012913396    0.4955253830   -0.2246837874          0.6368
H856       H    1.0027656255    0.5496181013   -0.2551681105         -0.3606
H857       H    1.0018757708    0.5430170845   -0.2903728347         -0.3617
N858       N    1.0064751232    0.5068131840   -0.3537442961         -0.3593
C859       C    1.0056332957    0.5037977001   -0.3742757981         -0.3602
C860       C    1.0039229205    0.4838043824   -0.3829806954         -0.3622
N861       N    1.0035255594    0.4664137415   -0.3702550647          0.6371
C862       C    1.0039965908    0.4699758714   -0.3488329335         -0.3624
H863       H    1.0027442920    0.4556056261   -0.3382085523          0.6363
C864       C    1.0019571193    0.5198460652   -0.4059188530          0.6372
C865       C    1.0000000000    0.5000000000   -0.4156731967           0.635
N866       N    1.0051339750    0.5220059435   -0.3850593110         -0.3601
N867       N    1.0014593511    0.4815836485   -0.4042109711          0.6357
H868       H    1.0010933522    0.5351064644   -0.4151748064          0.6369
C755       C    1.0000000000    0.5000000000    0.0843268033          0.6365
C756       C    0.9973564181    0.5201896595    0.0929530038         -0.3608
C757       C    0.9962584426    0.5237498372    0.1142921219         -0.3599
C758       C    0.9975960842    0.5070657270    0.1284194734         -0.3615
C759       C    0.9973636853    0.4862131035    0.1202296959         -0.3619
C760       C    1.0000454168    0.4821531629    0.0982480551          0.6359
C761       C    1.0007935085    0.5119326767    0.1498641598          0.6359
H762       H    0.9956289158    0.5408298455    0.1196632356         -0.3589
H763       H    0.9964838311    0.5349047892    0.0827925630         -0.3596
C764       C    1.0028986697    0.4604815571    0.0924273040           0.633
C765       C    0.9936606913    0.4690109777    0.1338758265         -0.3595
C766       C    0.9958646031    0.4484189650    0.1277634118         -0.3618
C767       C    1.0014514785    0.4443318474    0.1073527630          0.6336
H768       H    0.9883774621    0.4709368949    0.1508063610         -0.3553
H769       H    0.9936332053    0.4351415539    0.1395770957         -0.3605
H770       H    1.0044638267    0.4272620566    0.1029244838          0.6307
C771       C    0.9956247400    0.4358119404    0.0618297583         -0.3617
H772       H    0.9856411575    0.4267991723    0.0737853714          -0.354
H773       H    1.0066547331    0.4243288891    0.0534860699          0.6291
H774       H    0.9845668807    0.4432612827    0.0497728731         -0.3525
O775       O    1.0090025679    0.4529527908    0.0721771743           0.628
N776       N    0.9979806925    0.5315592967    0.1586235810         -0.3613
N777       N    1.0001007138    0.5334504077    0.1797141835           0.637
C778       C    1.0009985504    0.5151652875    0.1914582351          0.6357
N779       N    1.0049614271    0.4966025545    0.1814979605           0.632
N780       N    1.0121525061    0.4982534806    0.1618951726          0.6264
C781       C    0.9990965196    0.5148291258    0.2133681341          0.6371
C782       C    0.9980789480    0.5339298719    0.2245188193         -0.3616
C783       C    0.9975124039    0.5340795375    0.2463016085         -0.3612
C784       C    0.9974951588    0.5148523361    0.2566011524         -0.3618
C785       C    0.9977672776    0.4957700814    0.2465012451          0.6375
C786       C    0.9950534433    0.4904887609    0.3400804451          -0.361
H787       H    0.9983588279    0.5498327198    0.2162962752         -0.3613
H788       H    0.9991289628    0.4795227307    0.2166828645           0.636
O789       O    0.9973133554    0.4783974195    0.2611368189          0.6372
C790       C    0.9972937820    0.5108471344    0.2775318002         -0.3619
C791       C    0.9974342354    0.5254039672    0.2934191914         -0.3616
C792       C    0.9969887153    0.4894052916    0.2809316716         -0.3623
C793       C    0.9963690514    0.4815389297    0.3015467795         -0.3621
C794       C    0.9967615947    0.5178596065    0.3136072293         -0.3614
C795       C    0.9959398530    0.4960362749    0.3185641845         -0.3614
H796       H    0.9959427747    0.4638450577    0.3040803831         -0.3623
H797       H    0.9971377211    0.5310348499    0.3256784998         -0.3614
C798       C    0.9987086604    0.4955253830    0.2246837874          0.6368
H799       H    0.9972343745    0.5496181013    0.2551681105         -0.3606
H800       H    0.9981242292    0.5430170845    0.2903728347         -0.3617
N801       N    0.9935248768    0.5068131840    0.3537442961         -0.3593
C802       C    0.9943667043    0.5037977001    0.3742757981         -0.3602
C803       C    0.9960770795    0.4838043824    0.3829806954         -0.3622
N804       N    0.9964744406    0.4664137415    0.3702550647          0.6371
C805       C    0.9960034092    0.4699758714    0.3488329335         -0.3624
H806       H    0.9972557080    0.4556056261    0.3382085523          0.6363
C807       C    0.9980428807    0.5198460652    0.4059188530          0.6372
C808       C    1.0000000000    0.5000000000    0.4156731967           0.635
N809       N    0.9948660250    0.5220059435    0.3850593110         -0.3601
N810       N    0.9985406489    0.4815836485    0.4042109711          0.6357
H811       H    0.9989066478    0.5351064644    0.4151748064          0.6369
C698       C    1.0000000000   -0.0843268033    0.5000000000          0.6365
C699       C    0.9971786075   -0.0929530038    0.5201655801         -0.3608
C700       C    0.9960493020   -0.1142921219    0.5237159441         -0.3599
C701       C    0.9975339137   -0.1284194734    0.5070442691         -0.3615
C702       C    0.9974852792   -0.1202296959    0.4861904073         -0.3619
C703       C    1.0002026832   -0.0982480551    0.4821542561          0.6359
C704       C    1.0006883258   -0.1498641598    0.5119392058          0.6359
H705       H    0.9952692888   -0.1196632356    0.5407897418         -0.3589
H706       H    0.9961763831   -0.0827925630    0.5348724491         -0.3596
C707       C    1.0032467976   -0.0924273040    0.4605086349           0.633
C708       C    0.9939340158   -0.1338758265    0.4689563183         -0.3595
C709       C    0.9963193009   -0.1277634118    0.4483845262         -0.3618
C710       C    1.0019419755   -0.1073527630    0.4443467994          0.6336
H711       H    0.9886340204   -0.1508063610    0.4708356044         -0.3553
H712       H    0.9942049917   -0.1395770957    0.4350879673         -0.3605
H713       H    1.0051046275   -0.1029244838    0.4273042165          0.6307
C714       C    0.9961905415   -0.0618297583    0.4357758775         -0.3617
H715       H    0.9862867681   -0.0737853714    0.4266754829          -0.354
H716       H    1.0073212961   -0.0534860699    0.4243904694          0.6291
H717       H    0.9850674672   -0.0497728731    0.4431274875         -0.3525
O718       O    1.0094168031   -0.0721771743    0.4530339491           0.628
N719       N    0.9977026672   -0.1586235810    0.5315402770         -0.3613
N720       N    0.9998059416   -0.1797141835    0.5334499964           0.637
C721       C    1.0008648736   -0.1914582351    0.5151734980          0.6357
N722       N    1.0049911731   -0.1814979605    0.4966464070           0.632
N723       N    1.0121674248   -0.1618951726    0.4983606375          0.6264
C724       C    0.9989658789   -0.2133681341    0.5148205884          0.6371
C725       C    0.9977800291   -0.2245188193    0.5339116260         -0.3616
C726       C    0.9972121881   -0.2463016085    0.5340562933         -0.3612
C727       C    0.9973643758   -0.2566011524    0.5148296865         -0.3618
C728       C    0.9978046387   -0.2465012451    0.4957505706          0.6375
C729       C    0.9951374493   -0.3400804451    0.4904455406          -0.361
H730       H    0.9979197607   -0.2162962752    0.5498163227         -0.3613
H731       H    0.9993094444   -0.2166828645    0.4795158501           0.636
O732       O    0.9975038239   -0.2611368189    0.4783745833          0.6372
C733       C    0.9971983010   -0.2775318002    0.5108228658         -0.3619
C734       C    0.9972104728   -0.2934191914    0.5253803711         -0.3616
C735       C    0.9970821939   -0.2809316716    0.4893791672         -0.3623
C736       C    0.9965318732   -0.3015467795    0.4815076502         -0.3621
C737       C    0.9966043398   -0.3136072293    0.5178303759         -0.3614
C738       C    0.9959749394   -0.3185641845    0.4960006504         -0.3614
H739       H    0.9962615332   -0.3040803831    0.4638107088         -0.3623
H740       H    0.9968643500   -0.3256784998    0.5310084222         -0.3614
C741       C    0.9987481413   -0.2246837874    0.4955141773          0.6368
H742       H    0.9967972421   -0.2551681105    0.5495918038         -0.3606
H743       H    0.9977452311   -0.2903728347    0.5429988847         -0.3617
N744       N    0.9934650898   -0.3537442961    0.5067558600         -0.3593
C745       C    0.9943334573   -0.3742757981    0.5037479114         -0.3602
C746       C    0.9962199493   -0.3829806954    0.4837704421         -0.3622
N747       N    0.9967705430   -0.3702550647    0.4663839779          0.6371
C748       C    0.9962681400   -0.3488329335    0.4699418188         -0.3624
H749       H    0.9976470222   -0.3382085523    0.4555831668          0.6363
C750       C    0.9978680712   -0.4059188530    0.5198280483          0.6372
C751       C    1.0000000000   -0.4156731967    0.5000000000           0.635
N752       N    0.9946723057   -0.3850593110    0.5219598480         -0.3601
N753       N    0.9987029923   -0.4042109711    0.4815715036          0.6357
H754       H    0.9985973286   -0.4151748064    0.5350954666          0.6369
C641       C    1.0000000000    0.0843268033    0.5000000000          0.6365
C642       C    0.9971786075    0.0929530038    0.4798344199         -0.3608
C643       C    0.9960493020    0.1142921219    0.4762840559         -0.3599
C644       C    0.9975339137    0.1284194734    0.4929557309         -0.3615
C645       C    0.9974852792    0.1202296959    0.5138095927         -0.3619
C646       C    1.0002026832    0.0982480551    0.5178457439          0.6359
C647       C    1.0006883258    0.1498641598    0.4880607942          0.6359
H648       H    0.9952692888    0.1196632356    0.4592102582         -0.3589
H649       H    0.9961763831    0.0827925630    0.4651275509         -0.3596
C650       C    1.0032467976    0.0924273040    0.5394913651           0.633
C651       C    0.9939340158    0.1338758265    0.5310436817         -0.3595
C652       C    0.9963193009    0.1277634118    0.5516154738         -0.3618
C653       C    1.0019419755    0.1073527630    0.5556532006          0.6336
H654       H    0.9886340204    0.1508063610    0.5291643956         -0.3553
H655       H    0.9942049917    0.1395770957    0.5649120327         -0.3605
H656       H    1.0051046275    0.1029244838    0.5726957835          0.6307
C657       C    0.9961905415    0.0618297583    0.5642241225         -0.3617
H658       H    0.9862867681    0.0737853714    0.5733245171          -0.354
H659       H    1.0073212961    0.0534860699    0.5756095306          0.6291
H660       H    0.9850674672    0.0497728731    0.5568725125         -0.3525
O661       O    1.0094168031    0.0721771743    0.5469660509           0.628
N662       N    0.9977026672    0.1586235810    0.4684597230         -0.3613
N663       N    0.9998059416    0.1797141835    0.4665500036           0.637
C664       C    1.0008648736    0.1914582351    0.4848265020          0.6357
N665       N    1.0049911731    0.1814979605    0.5033535930           0.632
N666       N    1.0121674248    0.1618951726    0.5016393625          0.6264
C667       C    0.9989658789    0.2133681341    0.4851794116          0.6371
C668       C    0.9977800291    0.2245188193    0.4660883740         -0.3616
C669       C    0.9972121881    0.2463016085    0.4659437067         -0.3612
C670       C    0.9973643758    0.2566011524    0.4851703135         -0.3618
C671       C    0.9978046387    0.2465012451    0.5042494294          0.6375
C672       C    0.9951374493    0.3400804451    0.5095544594          -0.361
H673       H    0.9979197607    0.2162962752    0.4501836773         -0.3613
H674       H    0.9993094444    0.2166828645    0.5204841499           0.636
O675       O    0.9975038239    0.2611368189    0.5216254167          0.6372
C676       C    0.9971983010    0.2775318002    0.4891771342         -0.3619
C677       C    0.9972104728    0.2934191914    0.4746196289         -0.3616
C678       C    0.9970821939    0.2809316716    0.5106208328         -0.3623
C679       C    0.9965318732    0.3015467795    0.5184923498         -0.3621
C680       C    0.9966043398    0.3136072293    0.4821696241         -0.3614
C681       C    0.9959749394    0.3185641845    0.5039993496         -0.3614
H682       H    0.9962615332    0.3040803831    0.5361892912         -0.3623
H683       H    0.9968643500    0.3256784998    0.4689915778         -0.3614
C684       C    0.9987481413    0.2246837874    0.5044858227          0.6368
H685       H    0.9967972421    0.2551681105    0.4504081962         -0.3606
H686       H    0.9977452311    0.2903728347    0.4570011153         -0.3617
N687       N    0.9934650898    0.3537442961    0.4932441400         -0.3593
C688       C    0.9943334573    0.3742757981    0.4962520886         -0.3602
C689       C    0.9962199493    0.3829806954    0.5162295579         -0.3622
N690       N    0.9967705430    0.3702550647    0.5336160221          0.6371
C691       C    0.9962681400    0.3488329335    0.5300581812         -0.3624
H692       H    0.9976470222    0.3382085523    0.5444168332          0.6363
C693       C    0.9978680712    0.4059188530    0.4801719517          0.6372
C694       C    1.0000000000    0.4156731967    0.5000000000           0.635
N695       N    0.9946723057    0.3850593110    0.4780401520         -0.3601
N696       N    0.9987029923    0.4042109711    0.5184284964          0.6357
H697       H    0.9985973286    0.4151748064    0.4649045334          0.6369
C584       C    0.5843268033   -0.0000000000    0.5000000000          0.6365
C585       C    0.5929530038   -0.0084823982    0.4814889277         -0.3608
C586       C    0.6142921219   -0.0094428064    0.4778892011         -0.3599
C587       C    0.6284194734   -0.0017155913    0.4927363882         -0.3615
C588       C    0.6202296959    0.0095557727    0.5102818227         -0.3619
C589       C    0.5982480551    0.0094396468    0.5151461126          0.6359
C590       C    0.6498641598   -0.0070095828    0.4903106152          0.6359
H591       H    0.6196632356   -0.0179802759    0.4630826282         -0.3589
H592       H    0.5827925630   -0.0155579740    0.4685570803         -0.3596
C593       C    0.5924273040    0.0185314210    0.5350242209           0.633
C594       C    0.6338758265    0.0218291308    0.5228909455         -0.3595
C595       C    0.6277634118    0.0308977530    0.5415094392         -0.3618
C596       C    0.6073527630    0.0283344719    0.5479396256          0.6336
H597       H    0.6508063610    0.0252829001    0.5184532497         -0.3553
H598       H    0.6395770957    0.0398398528    0.5515746084         -0.3605
H599       H    0.6029244838    0.0348475015    0.5640030139          0.6307
C600       C    0.5618297583    0.0377963545    0.5520642438         -0.3617
H601       H    0.5737853714    0.0510421661    0.5543988494          -0.354
H602       H    0.5534860699    0.0345488531    0.5676518976          0.6291
H603       H    0.5497728731    0.0432096967    0.5398796355         -0.3525
O604       O    0.5721771743    0.0173578527    0.5446451685           0.628
N605       N    0.6586235810   -0.0150495655    0.4721867408         -0.3613
N606       N    0.6797141835   -0.0178502377    0.4717102681           0.637
C607       C    0.6914582351   -0.0089000996    0.4876804515          0.6357
N608       N    0.6814979605   -0.0023995980    0.5055136489           0.632
N609       N    0.6618951726   -0.0093695241    0.5079338360          0.6264
C610       C    0.7133681341   -0.0071099404    0.4869551544          0.6371
C611       C    0.7245188193   -0.0163917886    0.4702302853         -0.3616
C612       C    0.7463016085   -0.0159912287    0.4698025893         -0.3612
C613       C    0.7566011524   -0.0057654010    0.4860850344         -0.3618
C614       C    0.7465012451    0.0041382642    0.5023983390          0.6375
C615       C    0.8400804451    0.0092425648    0.5054320427          -0.361
H616       H    0.7162962752   -0.0250746488    0.4569041140         -0.3613
H617       H    0.7166828645    0.0116131516    0.5168882200           0.636
O618       O    0.7611368189    0.0137491853    0.5168774834          0.6372
C619       C    0.7775318002   -0.0034676808    0.4893717767         -0.3619
C620       C    0.7934191914   -0.0113175581    0.4771120648         -0.3616
C621       C    0.7809316716    0.0081781797    0.5073778762         -0.3623
C622       C    0.8015467795    0.0128809149    0.5137141144         -0.3621
C623       C    0.8136072293   -0.0067409435    0.4831473297         -0.3614
C624       C    0.8185641845    0.0055453082    0.5012022760         -0.3614
H625       H    0.8040803831    0.0226390003    0.5284801087         -0.3623
H626       H    0.8256784998   -0.0140567744    0.4721834286         -0.3614
C627       C    0.7246837874    0.0034705660    0.5031056283          0.6368
H628       H    0.7551681105   -0.0240078963    0.4564887879         -0.3606
H629       H    0.7903728347   -0.0212562090    0.4625545510         -0.3617
N630       N    0.8537442961    0.0018681476    0.4907882292         -0.3593
C631       C    0.8742757981    0.0027563183    0.4937903900         -0.3602
C632       C    0.8829806954    0.0119251681    0.5116394888         -0.3622
N633       N    0.8702550647    0.0208243278    0.5265859682          0.6371
C634       C    0.8488329335    0.0193316602    0.5233175459         -0.3624
H635       H    0.8382085523    0.0259023366    0.5361588237          0.6363
C636       C    0.9059188530   -0.0088815754    0.4821446300          0.6372
C637       C    0.9156731967   -0.0000000000    0.5000000000           0.635
N638       N    0.8850593110   -0.0073368321    0.4786273505         -0.3601
N639       N    0.9042109711    0.0110171263    0.5148295191          0.6357
H640       H    0.9151748064   -0.0177179825    0.4696729105          0.6369
C527       C    1.4156731967   -0.0000000000    0.5000000000          0.6365
C528       C    1.4070469962    0.0154638655    0.4867531233         -0.3608
C529       C    1.3857078781    0.0178454482    0.4838880789         -0.3599
C530       C    1.3715805266    0.0046037697    0.4941255967         -0.3615
C531       C    1.3797703041   -0.0129869367    0.5053261756         -0.3619
C532       C    1.4017519449   -0.0149215963    0.5097906905          0.6359
C533       C    1.3501358402    0.0104270326    0.4941437708          0.6359
H534       H    1.3803367644    0.0318056436    0.4740272508         -0.3589
H535       H    1.4172074370    0.0273106927    0.4779810577         -0.3596
C536       C    1.4075726960   -0.0315119883    0.5240229933           0.633
C537       C    1.3661241735   -0.0294169702    0.5116253258         -0.3595
C538       C    1.3722365882   -0.0454580634    0.5247238579         -0.3618
C539       C    1.3926472370   -0.0458279266    0.5316362315          0.6336
H540       H    1.3491936390   -0.0306911429    0.5061482690         -0.3553
H541       H    1.3604229043   -0.0577970424    0.5301107290         -0.3605
H542       H    1.3970755162   -0.0584774389    0.5434870475          0.6307
C543       C    1.4381702417   -0.0561473033    0.5314122623         -0.3617
H544       H    1.4262146286   -0.0691510083    0.5279763398          -0.354
H545       H    1.4465139301   -0.0597366640    0.5469247640          0.6291
H546       H    1.4502271269   -0.0559513315    0.5180807003         -0.3525
O547       O    1.4278228257   -0.0344816380    0.5332491017           0.628
N548       N    1.3413764190    0.0253268819    0.4810628444         -0.3613
N549       N    1.3202858165    0.0280691698    0.4818049012           0.637
C550       C    1.3085417649    0.0132463358    0.4925489843          0.6357
N551       N    1.3185020395   -0.0001340599    0.5060116905           0.632
N552       N    1.3381048274    0.0051782280    0.5111319221          0.6264
C553       C    1.2866318659    0.0119254148    0.4911397669          0.6371
C554       C    1.2754811807    0.0273658904    0.4798496975         -0.3616
C555       C    1.2536983915    0.0271816367    0.4792934399         -0.3612
C556       C    1.2433988476    0.0110697669    0.4897859716         -0.3618
C557       C    1.2534987549   -0.0047625856    0.5004416323          0.6375
C558       C    1.1599195549   -0.0106686123    0.5010548951          -0.361
H559       H    1.2837037248    0.0408371927    0.4713937576         -0.3613
H560       H    1.2833171355   -0.0176253466    0.5104606129           0.636
O561       O    1.2388631811   -0.0195599392    0.5095550154          0.6372
C562       C    1.2224681998    0.0076054351    0.4918060207         -0.3619
C563       C    1.2065808086    0.0198732817    0.4839688623         -0.3616
C564       C    1.2190683284   -0.0105184424    0.5032677287         -0.3623
C565       C    1.1984532205   -0.0174450074    0.5070474549         -0.3621
C566       C    1.1863927707    0.0131874371    0.4875282593         -0.3614
C567       C    1.1814358155   -0.0055382750    0.4987657309         -0.3614
H568       H    1.1959196169   -0.0324962617    0.5163595203         -0.3623
H569       H    1.1743215002    0.0244270133    0.4806434619         -0.3614
C570       C    1.2753162126   -0.0044530844    0.5013637429          0.6368
H571       H    1.2448318895    0.0400429800    0.4705693287         -0.3606
H572       H    1.2096271653    0.0350010171    0.4749217849         -0.3617
N573       N    1.1462557039    0.0021675009    0.4908540371         -0.3593
C574       C    1.1257242019    0.0001021140    0.4932069065         -0.3602
C575       C    1.1170193046   -0.0157072824    0.5055649451         -0.3622
N576       N    1.1297449353   -0.0300544975    0.5154010880          0.6371
C577       C    1.1511670665   -0.0273286775    0.5130600314         -0.3624
H578       H    1.1617914477   -0.0386791712    0.5219616322          0.6363
C579       C    1.0940811470    0.0155512383    0.4875157857          0.6372
C580       C    1.0843268033   -0.0000000000    0.5000000000           0.635
N581       N    1.1149406890    0.0156240614    0.4836749286         -0.3601
N582       N    1.0957890289   -0.0162208563    0.5088416928          0.6357
H583       H    1.0848251936    0.0288035743    0.4798999163          0.6369
C470       C   -0.0000000000   -0.4156731967    0.0000000000          0.6365
C471       C    0.0182826275   -0.4070469962    0.0089641737         -0.3608
C472       C    0.0218559731   -0.3857078781    0.0100185058         -0.3599
C473       C    0.0072162014   -0.3715805266    0.0019051895         -0.3615
C474       C   -0.0100280946   -0.3797703041   -0.0098217101         -0.3619
C475       C   -0.0148937574   -0.4017519449   -0.0098329878          0.6359
C476       C    0.0095025278   -0.3501358402    0.0072608811          0.6359
H477       H    0.0364339293   -0.3803367644    0.0189407354         -0.3589
H478       H    0.0310247783   -0.4172074370    0.0163759239         -0.3596
C479       C   -0.0345269966   -0.4075726960   -0.0194421223           0.633
C480       C   -0.0223115357   -0.3661241735   -0.0224210105         -0.3595
C481       C   -0.0406861983   -0.3722365882   -0.0319740199         -0.3618
C482       C   -0.0471812957   -0.3926472370   -0.0295799821          0.6336
H483       H   -0.0177849297   -0.3491936390   -0.0257574016         -0.3553
H484       H   -0.0505137818   -0.3604229043   -0.0411765948         -0.3605
H485       H   -0.0630686432   -0.3970755162   -0.0365113735          0.6307
C486       C   -0.0510567551   -0.4381702417   -0.0391466174         -0.3617
H487       H   -0.0530437394   -0.4262146286   -0.0524490157          -0.354
H488       H   -0.0667240955   -0.4465139301   -0.0363083679          0.6291
H489       H   -0.0387345844   -0.4502271269   -0.0442390686         -0.3525
O490       O   -0.0441753738   -0.4278228257   -0.0185208659           0.628
N491       N    0.0274096742   -0.3413764190    0.0157726527         -0.3613
N492       N    0.0278126522   -0.3202858165    0.0185848405           0.637
C493       C    0.0120822895   -0.3085417649    0.0092196165          0.6357
N494       N   -0.0055745883   -0.3185020395    0.0022544090           0.632
N495       N   -0.0081764423   -0.3381048274    0.0091585767          0.6264
C496       C    0.0128542105   -0.2866318659    0.0074490618          0.6371
C497       C    0.0293303149   -0.2754811807    0.0171656424         -0.3616
C498       C    0.0297683522   -0.2536983915    0.0167764184         -0.3612
C499       C    0.0137592369   -0.2433988476    0.0061277661         -0.3618
C500       C   -0.0022891628   -0.2534987549   -0.0041996422          0.6375
C501       C   -0.0051881782   -0.1599195549   -0.0093816256          -0.361
H502       H    0.0424245702   -0.2837037248    0.0261944508         -0.3613
H503       H   -0.0165783576   -0.2833171355   -0.0120513619           0.636
O504       O   -0.0165116960   -0.2388631811   -0.0141863821          0.6372
C505       C    0.0105337836   -0.2224681998    0.0037447754         -0.3619
C506       C    0.0225837556   -0.2065808086    0.0119129628         -0.3616
C507       C   -0.0071612139   -0.2190683284   -0.0083685541         -0.3623
C508       C   -0.0133721459   -0.1984532205   -0.0132355815         -0.3621
C509       C    0.0166703913   -0.1863927707    0.0071798933         -0.3614
C510       C   -0.0010566685   -0.1814358155   -0.0055748867         -0.3614
H511       H   -0.0278775775   -0.1959196169   -0.0233769460         -0.3623
H512       H    0.0274389798   -0.1743215002    0.0147802887         -0.3614
C513       C   -0.0030136922   -0.2753162126   -0.0035506922          0.6368
H514       H    0.0428676851   -0.2448318895    0.0251389386         -0.3606
H515       H    0.0368760503   -0.2096271653    0.0222293722         -0.3617
N516       N    0.0092575271   -0.1462557039   -0.0016263112         -0.3593
C517       C    0.0062796510   -0.1257242019   -0.0025927843         -0.3602
C518       C   -0.0113232563   -0.1170193046   -0.0122258415         -0.3622
N519       N   -0.0260316007   -0.1297449353   -0.0215133004          0.6371
C520       C   -0.0228033822   -0.1511670665   -0.0199355661         -0.3624
H521       H   -0.0354682145   -0.1617914477   -0.0268402187          0.6363
C522       C    0.0176166981   -0.0940811470    0.0093460455          0.6372
C523       C   -0.0000000000   -0.0843268033    0.0000000000           0.635
N524       N    0.0211732184   -0.1149406890    0.0078939263         -0.3601
N525       N   -0.0145359686   -0.0957890289   -0.0114016370          0.6357
H526       H    0.0298527742   -0.0848251936    0.0185059756          0.6369
C413       C    0.0000000000    0.4156731967    0.0000000000          0.6365
C414       C   -0.0155228568    0.4070469962    0.0131777006         -0.3608
C415       C   -0.0187280715    0.3857078781    0.0150769147         -0.3599
C416       C   -0.0065277591    0.3715805266    0.0036182413         -0.3615
C417       C    0.0073103753    0.3797703041   -0.0119827828         -0.3619
C418       C    0.0120244042    0.4017519449   -0.0131880765          0.6359
C419       C   -0.0074294880    0.3501358402    0.0093712932          0.6359
H420       H   -0.0306698979    0.3803367644    0.0273045789         -0.3589
H421       H   -0.0260558178    0.4172074370    0.0234904686         -0.3596
C422       C    0.0286982338    0.4075726960   -0.0273225363           0.633
C423       C    0.0161252869    0.3661241735   -0.0272117890         -0.3595
C424       C    0.0315928232    0.3722365882   -0.0409829014         -0.3618
C425       C    0.0384768602    0.3926472370   -0.0402564433          0.6336
H426       H    0.0109181981    0.3491936390   -0.0293349691         -0.3553
H427       H    0.0388607995    0.3604229043   -0.0523162726         -0.3605
H428       H    0.0521767025    0.3970755162   -0.0508755921          0.6307
C429       C    0.0398854534    0.4381702417   -0.0504816847         -0.3617
H430       H    0.0385463421    0.4262146286   -0.0638648342          -0.354
H431       H    0.0557701470    0.4465139301   -0.0515760913          0.6291
H432       H    0.0266902509    0.4502271269   -0.0523936420         -0.3525
O433       O    0.0382775560    0.4278228257   -0.0287978267           0.628
N434       N   -0.0226994015    0.3413764190    0.0220182647         -0.3613
N435       N   -0.0223997503    0.3202858165    0.0248433312           0.637
C436       C   -0.0094495162    0.3085417649    0.0119033480          0.6357
N437       N    0.0059574167    0.3185020395    0.0008170560           0.632
N438       N    0.0101744140    0.3381048274    0.0068713198          0.6264
C439       C   -0.0106324333    0.2866318659    0.0103764449          0.6371
C440       C   -0.0242193466    0.2754811807    0.0238400902         -0.3616
C441       C   -0.0247395239    0.2536983915    0.0235702984         -0.3612
C442       C   -0.0118341052    0.2433988476    0.0093177288         -0.3618
C443       C    0.0011882508    0.2534987549   -0.0046330682          0.6375
C444       C    0.0027265631    0.1599195549   -0.0103681216          -0.361
H445       H   -0.0346967045    0.2837037248    0.0358068723         -0.3613
H446       H    0.0131129257    0.2833171355   -0.0157520934           0.636
O447       O    0.0125242259    0.2388631811   -0.0178054292          0.6372
C448       C   -0.0092922814    0.2224681998    0.0062159028         -0.3619
C449       C   -0.0189685601    0.2065808086    0.0170920574         -0.3616
C450       C    0.0048879094    0.2190683284   -0.0098703608         -0.3623
C451       C    0.0097141212    0.1984532205   -0.0161130616         -0.3621
C452       C   -0.0143979297    0.1863927707    0.0110522593         -0.3614
C453       C   -0.0003441127    0.1814358155   -0.0056636999         -0.3614
H454       H    0.0212863841    0.1959196169   -0.0295047586         -0.3623
H455       H   -0.0229714035    0.1743215002    0.0210634558         -0.3614
C456       C    0.0020499091    0.2753162126   -0.0041818212          0.6368
H457       H   -0.0353853559    0.2448318895    0.0348924239         -0.3606
H458       H   -0.0302912393    0.2096271653    0.0306011257         -0.3617
N459       N   -0.0093734981    0.1462557039    0.0006958660         -0.3593
C460       C   -0.0067239680    0.1257242019   -0.0009720089         -0.3602
C461       C    0.0079757757    0.1170193046   -0.0146312793         -0.3622
N462       N    0.0199543492    0.1297449353   -0.0272450047          0.6371
C463       C    0.0172121806    0.1511670665   -0.0249231193         -0.3624
H464       H    0.0277946644    0.1617914477   -0.0347253251          0.6363
C465       C   -0.0147835647    0.0940811470    0.0133844251          0.6372
C466       C   -0.0000000000    0.0843268033    0.0000000000           0.635
N467       N   -0.0185877205    0.1149406890    0.0128497431         -0.3601
N468       N    0.0112925099    0.0957890289   -0.0146209072          0.6357
H469       H   -0.0243968133    0.0848251936    0.0252676624          0.6369
C356       C   -0.4156731967   -0.0000000000    0.0000000000          0.6365
C357       C   -0.4070469962    0.0188087640   -0.0078000816         -0.3608
C358       C   -0.3857078781    0.0224411914   -0.0086282647         -0.3599
C359       C   -0.3715805266    0.0073214686   -0.0014489330         -0.3615
C360       C   -0.3797703041   -0.0106242499    0.0091735481         -0.3619
C361       C   -0.4017519449   -0.0154810441    0.0088796920          0.6359
C362       C   -0.3501358402    0.0099391353   -0.0066507156          0.6359
H363       H   -0.3803367644    0.0375499448   -0.0166187938         -0.3589
H364       H   -0.4172074370    0.0319906073   -0.0143982221         -0.3596
C365       C   -0.4075726960   -0.0356782054    0.0172387723           0.633
C366       C   -0.3661241735   -0.0236735823    0.0209777939         -0.3595
C367       C   -0.3722365882   -0.0426111246    0.0293597811         -0.3618
C368       C   -0.3926472370   -0.0489433162    0.0265631662          0.6336
H369       H   -0.3491936390   -0.0193651002    0.0245914692         -0.3553
H370       H   -0.3604229043   -0.0529964338    0.0379279859         -0.3605
H371       H   -0.3970755162   -0.0652340445    0.0324846671          0.6307
C372       C   -0.4381702417   -0.0534110445    0.0358679553         -0.3617
H373       H   -0.4262146286   -0.0562282730    0.0490195762          -0.354
H374       H   -0.4465139301   -0.0688695728    0.0320528382          0.6291
H375       H   -0.4502271269   -0.0414324569    0.0417230719         -0.3525
O376       O   -0.4278228257   -0.0452498251    0.0157143072           0.628
N377       N   -0.3413764190    0.0283447883   -0.0140228308         -0.3613
N378       N   -0.3202858165    0.0289233174   -0.0168042145           0.637
C379       C   -0.3085417649    0.0126366466   -0.0084438268          0.6357
N380       N   -0.3185020395   -0.0054222499   -0.0025995385           0.632
N381       N   -0.3381048274   -0.0075860432   -0.0096532732          0.6264
C382       C   -0.2866318659    0.0132960220   -0.0066283517          0.6371
C383       C   -0.2754811807    0.0303489995   -0.0152926413         -0.3616
C384       C   -0.2536983915    0.0307617677   -0.0148767152         -0.3612
C385       C   -0.2433988476    0.0141164127   -0.0052529048         -0.3618
C386       C   -0.2534987549   -0.0025480050    0.0040478305          0.6375
C387       C   -0.1599195549   -0.0057662622    0.0090378268          -0.361
H388       H   -0.2837037248    0.0439836553   -0.0234825781         -0.3613
H389       H   -0.2833171355   -0.0173014368    0.0109880639           0.636
O390       O   -0.2388631811   -0.0173687873    0.0131230626          0.6372
C391       C   -0.2224681998    0.0107478768   -0.0030768627         -0.3619
C392       C   -0.2065808086    0.0232863374   -0.0104733562         -0.3616
C393       C   -0.2190683284   -0.0076718881    0.0079030257         -0.3623
C394       C   -0.1984532205   -0.0141757940    0.0123710052         -0.3621
C395       C   -0.1863927707    0.0170878137   -0.0061204114         -0.3614
C396       C   -0.1814358155   -0.0014041739    0.0054976546         -0.3614
H397       H   -0.1959196169   -0.0292886139    0.0215828178         -0.3623
H398       H   -0.1743215002    0.0283118081   -0.0130305821         -0.3614
C399       C   -0.2753162126   -0.0032304147    0.0033547245          0.6368
H400       H   -0.2448318895    0.0443597100   -0.0224013568         -0.3606
H401       H   -0.2096271653    0.0381974165   -0.0198732344         -0.3617
N402       N   -0.1462557039    0.0091373268    0.0022036232         -0.3593
C403       C   -0.1257242019    0.0061047065    0.0029814603         -0.3602
C404       C   -0.1170193046   -0.0120676188    0.0114917323         -0.3622
N405       N   -0.1297449353   -0.0273294063    0.0198385958          0.6371
C406       C   -0.1511670665   -0.0240086058    0.0184663987         -0.3624
H407       H   -0.1617914477   -0.0370814841    0.0245632879          0.6363
C408       C   -0.0940811470    0.0181680913   -0.0082229604          0.6372
C409       C   -0.0843268033   -0.0000000000    0.0000000000           0.635
N410       N   -0.1149406890    0.0216265541   -0.0065506799         -0.3601
N411       N   -0.0957890289   -0.0152223249    0.0104676900          0.6357
H412       H   -0.0848251936    0.0309544790   -0.0165975748          0.6369
C299       C    0.0843268033   -0.0000000000    0.0000000000          0.6365
C300       C    0.0929530038    0.0202620078    0.0020154198         -0.3608
C301       C    0.1142921219    0.0238545610    0.0030023226         -0.3599
C302       C    0.1284194734    0.0071369616    0.0021833664         -0.3615
C303       C    0.1202296959   -0.0136983916    0.0030631257         -0.3619
C304       C    0.0982480551   -0.0178396422    0.0005087481          0.6359
C305       C    0.1498641598    0.0119022848   -0.0011636347          0.6359
H306       H    0.1196632356    0.0409458807    0.0031012128         -0.3589
H307       H    0.0827925630    0.0349971361    0.0024306823         -0.3596
C308       C    0.0924273040   -0.0395893919   -0.0016702272           0.633
C309       C    0.1338758265   -0.0307772454    0.0072984590         -0.3595
C310       C    0.1277634118   -0.0514277607    0.0057349904         -0.3618
C311       C    0.1073527630   -0.0556863796    0.0002777135          0.6336
H312       H    0.1508063610   -0.0286882129    0.0125193412         -0.3553
H313       H    0.1395770957   -0.0646294851    0.0083775749         -0.3605
H314       H    0.1029244838   -0.0728414732   -0.0022031665          0.6307
C315       C    0.0618297583   -0.0640212588    0.0063661851         -0.3617
H316       H    0.0737853714   -0.0727196918    0.0166247996          -0.354
H317       H    0.0534860699   -0.0758412539   -0.0043019418          0.6291
H318       H    0.0497728731   -0.0562321627    0.0171874111         -0.3525
O319       O    0.0721771743   -0.0473040537   -0.0075374147           0.628
N320       N    0.1586235810    0.0316067793    0.0010384199         -0.3613
N321       N    0.1797141835    0.0334311519   -0.0011392980           0.637
C322       C    0.1914582351    0.0151269704   -0.0014689500          0.6357
N323       N    0.1814979605   -0.0035498594   -0.0048535444           0.632
N324       N    0.1618951726   -0.0021230117   -0.0120924173          0.6264
C325       C    0.2133681341    0.0148500287    0.0004426015          0.6371
C326       C    0.2245188193    0.0339731606    0.0008666057         -0.3616
C327       C    0.2463016085    0.0341403452    0.0014282295         -0.3612
C328       C    0.2566011524    0.0149229499    0.0020424695         -0.3618
C329       C    0.2465012451   -0.0041585532    0.0023629845          0.6375
C330       C    0.3400804451   -0.0093530629    0.0052394950          -0.361
H331       H    0.2162962752    0.0498596504    0.0000930784         -0.3613
H332       H    0.2166828645   -0.0204403503    0.0015064349           0.636
O333       O    0.2611368189   -0.0215087443    0.0033561077          0.6372
C334       C    0.2775318002    0.0109259322    0.0023681104         -0.3619
C335       C    0.2934191914    0.0254713851    0.0017757361         -0.3616
C336       C    0.2809316716   -0.0104960998    0.0033387977         -0.3623
C337       C    0.3015467795   -0.0183394283    0.0042024128         -0.3621
C338       C    0.3136072293    0.0179515475    0.0026823043         -0.3614
C339       C    0.3185641845   -0.0038357467    0.0041812627         -0.3614
H340       H    0.3040803831   -0.0360115331    0.0051778774         -0.3623
H341       H    0.3256784998    0.0311087595    0.0018972689         -0.3614
C342       C    0.2246837874   -0.0044323635    0.0014296535          0.6368
H343       H    0.2551681105    0.0496800496    0.0012236536         -0.3606
H344       H    0.2903728347    0.0430545857    0.0005391890         -0.3617
N345       N    0.3537442961    0.0070109510    0.0062604522         -0.3593
C346       C    0.3742757981    0.0039707824    0.0055126613         -0.3602
C347       C    0.3829806954   -0.0160660022    0.0044239017         -0.3622
N348       N    0.3702550647   -0.0334605960    0.0045667104          0.6371
C349       C    0.3488329335   -0.0298855581    0.0049269108         -0.3624
H350       H    0.3382085523   -0.0442877584    0.0041214110          0.6363
C351       C    0.4059188530    0.0198972645    0.0013399567          0.6372
C352       C    0.4156731967   -0.0000000000    0.0000000000           0.635
N353       N    0.3850593110    0.0221547426    0.0044482166         -0.3601
N354       N    0.4042109711   -0.0183621590    0.0020304738          0.6357
H355       H    0.4151748064    0.0351234858    0.0000027718          0.6369
C242       C    0.0000000000    0.0000000000   -0.0843268033          0.6365
C243       C   -0.0176108613    0.0102209805   -0.0929530038         -0.3608
C244       C   -0.0204727835    0.0126063142   -0.1142921219         -0.3599
C245       C   -0.0055932814    0.0049415092   -0.1284194734         -0.3615
C246       C    0.0137378037   -0.0028812185   -0.1202296959         -0.3619
C247       C    0.0164504534   -0.0069205666   -0.0982480551          0.6359
C248       C   -0.0113165764    0.0038669791   -0.1498641598          0.6359
H249       H   -0.0359905227    0.0197703046   -0.1196632356         -0.3589
H250       H   -0.0308527546    0.0166977630   -0.0827925630         -0.3596
C251       C    0.0353479501   -0.0179062010   -0.0924273040           0.633
C252       C    0.0310380973   -0.0060944938   -0.1338758265         -0.3595
C253       C    0.0491896861   -0.0160648518   -0.1277634118         -0.3618
C254       C    0.0508076911   -0.0227953619   -0.1073527630          0.6336
H255       H    0.0312972808   -0.0004771553   -0.1508063610         -0.3553
H256       H    0.0623013021   -0.0191233330   -0.1395770957         -0.3605
H257       H    0.0653975977   -0.0321541345   -0.1029244838          0.6307
C258       C    0.0609151190   -0.0207026127   -0.0618297583         -0.3617
H259       H    0.0730794899   -0.0149641470   -0.0737853714          -0.354
H260       H    0.0672597083   -0.0353062904   -0.0534860699          0.6291
H261       H    0.0583033275   -0.0076279236   -0.0497728731         -0.3525
O262       O    0.0399424212   -0.0264402934   -0.0721771743           0.628
N263       N   -0.0283426722    0.0140271075   -0.1586235810         -0.3613
N264       N   -0.0309047866    0.0127997687   -0.1797141835           0.637
C265       C   -0.0143784586    0.0049237157   -0.1914582351          0.6357
N266       N    0.0012226832   -0.0058875666   -0.1814979605           0.632
N267       N   -0.0030723278   -0.0118867379   -0.1618951726          0.6264
C268       C   -0.0133351747    0.0065492262   -0.2133681341          0.6371
C269       C   -0.0305679628    0.0148501279   -0.2245188193         -0.3616
C270       C   -0.0304877033    0.0154305850   -0.2463016085         -0.3612
C271       C   -0.0127393835    0.0080358088   -0.2566011524         -0.3618
C272       C    0.0047636597    0.0004298920   -0.2465012451          0.6375
C273       C    0.0106829217    0.0008984854   -0.3400804451          -0.361
H274       H   -0.0453500013    0.0207212641   -0.2162962752         -0.3613
H275       H    0.0192308800   -0.0070887599   -0.2166828645           0.636
O276       O    0.0209690323   -0.0058471553   -0.2611368189          0.6372
C277       C   -0.0089660148    0.0066779128   -0.2775318002         -0.3619
C278       C   -0.0224522951    0.0121589121   -0.2934191914         -0.3616
C279       C    0.0109367735   -0.0013048627   -0.2809316716         -0.3623
C280       C    0.0184342015   -0.0037649860   -0.3015467795         -0.3621
C281       C   -0.0152315712    0.0098717807   -0.3136072293         -0.3614
C282       C    0.0052223722    0.0022187247   -0.3185641845         -0.3614
H283       H    0.0349253117   -0.0101913460   -0.3040803831         -0.3623
H284       H   -0.0275338409    0.0146028133   -0.3256784998         -0.3614
C285       C    0.0046266176   -0.0005330713   -0.2246837874          0.6368
H286       H   -0.0447185695    0.0216761205   -0.2551681105         -0.3606
H287       H   -0.0389705335    0.0183108053   -0.2903728347         -0.3617
N288       N   -0.0037910957    0.0086008308   -0.3537442961         -0.3593
C289       C   -0.0013330568    0.0066617945   -0.3742757981         -0.3602
C290       C    0.0164563157   -0.0026224050   -0.3829806954         -0.3622
N291       N    0.0323501705   -0.0096918936   -0.3702550647          0.6371
C292       C    0.0292448055   -0.0078843126   -0.3488329335         -0.3624
H293       H    0.0420221096   -0.0145785418   -0.3382085523          0.6363
C294       C   -0.0175583951    0.0094551246   -0.4059188530          0.6372
C295       C   -0.0000000000    0.0000000000   -0.4156731967           0.635
N296       N   -0.0183269503    0.0132190068   -0.3850593110         -0.3601
N297       N    0.0175559447   -0.0057515662   -0.4042109711          0.6357
H298       H   -0.0319726677    0.0145398685   -0.4151748064          0.6369
C185       C    0.0000000000    0.0000000000    0.4156731967          0.6365
C186       C    0.0046965300   -0.0198129625    0.4070469962         -0.3608
C187       C    0.0049340448   -0.0235310268    0.3857078781         -0.3599
C188       C    0.0002612178   -0.0074588923    0.3715805266         -0.3615
C189       C   -0.0073593099    0.0119527917    0.3797703041         -0.3619
C190       C   -0.0062936713    0.0167003401    0.4017519449          0.6359
C191       C    0.0049782520   -0.0108736119    0.3501358402          0.6359
H192       H    0.0104094117   -0.0397218682    0.3803367644         -0.3589
H193       H    0.0091050723   -0.0338792770    0.4172074370         -0.3596
C194       C   -0.0113203218    0.0379731474    0.4075726960           0.633
C195       C   -0.0169283134    0.0267196284    0.3661241735         -0.3595
C196       C   -0.0221787182    0.0467526378    0.3722365882         -0.3618
C197       C   -0.0184068382    0.0525570006    0.3926472370          0.6336
H198       H   -0.0211836150    0.0230434788    0.3491936390         -0.3553
H199       H   -0.0289786075    0.0583728911    0.3604229043         -0.3605
H200       H   -0.0216509837    0.0695842587    0.3970755162          0.6307
C201       C   -0.0268788041    0.0584532273    0.4381702417         -0.3617
H202       H   -0.0394117986    0.0633344114    0.4262146286          -0.354
H203       H   -0.0206441596    0.0731041803    0.4465139301          0.6291
H204       H   -0.0345715797    0.0475633166    0.4502271269         -0.3525
O205       O   -0.0082869823    0.0471785125    0.4278228257           0.628
N206       N    0.0093166776   -0.0302202966    0.3413764190         -0.3613
N207       N    0.0119699891   -0.0312355451    0.3202858165           0.637
C208       C    0.0063176043   -0.0138228407    0.3085417649          0.6357
N209       N    0.0034320291    0.0049375673    0.3185020395           0.632
N210       N    0.0107407750    0.0059472252    0.3381048274          0.6264
C211       C    0.0044201333   -0.0141838524    0.2866318659          0.6371
C212       C    0.0102501532   -0.0324015587    0.2754811807         -0.3616
C213       C    0.0097736517   -0.0327426135    0.2536983915         -0.3612
C214       C    0.0029313325   -0.0147740789    0.2433988476         -0.3618
C215       C   -0.0035890132    0.0031616839    0.2534987549          0.6375
C216       C   -0.0080010739    0.0071354684    0.1599195549          -0.361
H217       H    0.0161577591   -0.0471690600    0.2837037248         -0.3613
H218       H   -0.0080843009    0.0188340475    0.2833171355           0.636
O219       O   -0.0101811488    0.0192414592    0.2388631811          0.6372
C220       C    0.0013211149   -0.0111012880    0.2224681998         -0.3619
C221       C    0.0066205040   -0.0246599600    0.2065808086         -0.3616
C222       C   -0.0065765361    0.0088354318    0.2190683284         -0.3623
C223       C   -0.0099486122    0.0159693462    0.1984532205         -0.3621
C224       C    0.0033132216   -0.0178458784    0.1863927707         -0.3614
C225       C   -0.0052028852    0.0022640442    0.1814358155         -0.3614
H226       H   -0.0166289420    0.0323592215    0.1959196169         -0.3623
H227       H    0.0083424277   -0.0300292932    0.1743215002         -0.3614
C228       C   -0.0027958311    0.0037246590    0.2753162126          0.6368
H229       H    0.0150303619   -0.0473676354    0.2448318895         -0.3606
H230       H    0.0135187008   -0.0408807143    0.2096271653         -0.3617
N231       N   -0.0036344332   -0.0086681943    0.1462557039         -0.3593
C232       C   -0.0039180277   -0.0055502798    0.1257242019         -0.3602
C233       C   -0.0094172643    0.0137478168    0.1170193046         -0.3622
N234       N   -0.0152199560    0.0301466295    0.1297449353          0.6371
C235       C   -0.0143956460    0.0266493229    0.1511670665         -0.3624
H236       H   -0.0183267690    0.0405280287    0.1617914477          0.6363
C237       C    0.0052162877   -0.0192480379    0.0940811470          0.6372
C238       C   -0.0000000000   -0.0000000000    0.0843268033           0.635
N239       N    0.0030132040   -0.0223950855    0.1149406890         -0.3601
N240       N   -0.0079026057    0.0166985189    0.0957890289          0.6357
H241       H    0.0114416565   -0.0332076460    0.0848251936          0.6369
loop_
_geom_bond_atom_site_label_1
_geom_bond_atom_site_label_2
_geom_bond_distance
_geom_bond_site_symmetry_2
_ccdc_geom_bond_type
Zn1          O5 1.942       .   S
Zn1          O6 1.922       .   S
Zn1         O10 1.922       .   S
Zn1         O17 1.922       .   S
Zn2          O5 1.942       .   S
Zn2          O7 1.922       .   S
Zn2          O9 1.922       .   S
Zn2         O13 1.922       .   S
Zn3          O5 1.942       .   S
Zn3          O8 1.922       .   S
Zn3         O11 1.922       .   S
Zn3         O14 1.922       .   S
Zn4          O5 1.942       .   S
Zn4         O12 1.922       .   S
Zn4         O15 1.922       .   S
Zn4         O16 1.922       .   S
O6          C18 1.304       .   A
O7          C19 1.304       .   A
O8          C20 1.304       .   A
O9          C18 1.304       .   A
O10         C20 1.304       .   A
O11         C19 1.304       .   A
O12         C21 1.304       .   A
O13         C22 1.304       .   A
O14         C21 1.304       .   A
O15         C22 1.304       .   A
O16         C23 1.304       .   A
O17         C23 1.304       .   A
C18        C238 1.540       .   S
C19        C299 1.540       .   S
C20        C523 1.540       .   S
C21        C242 1.540       .   S
C22        C466 1.540       .   S
C23        C409 1.540       .   S
Zn24        O28 1.942       .   S
Zn24        O29 1.922       .   S
Zn24        O33 1.922       .   S
Zn24        O40 1.922       .   S
Zn25        O28 1.942       .   S
Zn25        O30 1.922       .   S
Zn25        O32 1.922       .   S
Zn25        O36 1.922       .   S
Zn26        O28 1.942       .   S
Zn26        O31 1.922       .   S
Zn26        O34 1.922       .   S
Zn26        O37 1.922       .   S
Zn27        O28 1.942       .   S
Zn27        O35 1.922       .   S
Zn27        O38 1.922       .   S
Zn27        O39 1.922       .   S
O29         C41 1.304       .   A
O30         C42 1.304       .   A
O31         C43 1.304       .   A
O32         C41 1.304       .   A
O33         C43 1.304       .   A
O34         C42 1.304       .   A
O35         C44 1.304       .   A
O36         C45 1.304       .   A
O37         C44 1.304       .   A
O38         C45 1.304       .   A
O39         C46 1.304       .   A
O40         C46 1.304       .   A
C41        C185 1.540   1_655   S
C42        C580 1.540       .   S
C43        C641 1.540       .   S
C44        C295 1.540   1_656   S
C45        C698 1.540       .   S
C46        C637 1.540       .   S
Zn47        O51 1.942       .   S
Zn47        O52 1.922       .   S
Zn47        O56 1.922       .   S
Zn47        O63 1.922       .   S
Zn48        O51 1.942       .   S
Zn48        O53 1.922       .   S
Zn48        O55 1.922       .   S
Zn48        O59 1.922       .   S
Zn49        O51 1.942       .   S
Zn49        O54 1.922       .   S
Zn49        O57 1.922       .   S
Zn49        O60 1.922       .   S
Zn50        O51 1.942       .   S
Zn50        O58 1.922       .   S
Zn50        O61 1.922       .   S
Zn50        O62 1.922       .   S
O52         C64 1.304       .   A
O53         C65 1.304       .   A
O54         C66 1.304       .   A
O55         C64 1.304       .   A
O56         C66 1.304       .   A
O57         C65 1.304       .   A
O58         C67 1.304       .   A
O59         C68 1.304       .   A
O60         C67 1.304       .   A
O61         C68 1.304       .   A
O62         C69 1.304       .   A
O63         C69 1.304       .   A
C64        C413 1.540   1_655   S
C65        C755 1.540       .   S
C66        C869 1.540       .   S
C67        C470 1.540   1_665   S
C68        C979 1.540       .   S
C69        C812 1.540       .   S
Zn70        O74 1.942       .   S
Zn70        O75 1.922       .   S
Zn70        O79 1.922       .   S
Zn70        O86 1.922       .   S
Zn71        O74 1.942       .   S
Zn71        O76 1.922       .   S
Zn71        O78 1.922       .   S
Zn71        O82 1.922       .   S
Zn72        O74 1.942       .   S
Zn72        O77 1.922       .   S
Zn72        O80 1.922       .   S
Zn72        O83 1.922       .   S
Zn73        O74 1.942       .   S
Zn73        O81 1.922       .   S
Zn73        O84 1.922       .   S
Zn73        O85 1.922       .   S
O75         C87 1.304       .   A
O76         C88 1.304       .   A
O77         C89 1.304       .   A
O78         C87 1.304       .   A
O79         C89 1.304       .   A
O80         C88 1.304       .   A
O81         C90 1.304       .   A
O82         C91 1.304       .   A
O83         C90 1.304       .   A
O84         C91 1.304       .   A
O85         C92 1.304       .   A
O86         C92 1.304       .   A
C87        C694 1.540       .   S
C88        C808 1.540       .   S
C89       C1040 1.540       .   S
C90        C751 1.540   1_565   S
C91        C983 1.540       .   S
C92        C865 1.540   1_556   S
Zn93        O97 1.942       .   S
Zn93        O98 1.922       .   S
Zn93       O102 1.922       .   S
Zn93       O109 1.922       .   S
Zn94        O97 1.942       .   S
Zn94        O99 1.922       .   S
Zn94       O101 1.922       .   S
Zn94       O105 1.922       .   S
Zn95        O97 1.942       .   S
Zn95       O100 1.922       .   S
Zn95       O103 1.922       .   S
Zn95       O106 1.922       .   S
Zn96        O97 1.942       .   S
Zn96       O104 1.922       .   S
Zn96       O107 1.922       .   S
Zn96       O108 1.922       .   S
O98        C110 1.304       .   A
O99        C111 1.304       .   A
O100       C112 1.304       .   A
O101       C110 1.304       .   A
O102       C112 1.304       .   A
O103       C111 1.304       .   A
O104       C113 1.304       .   A
O105       C114 1.304       .   A
O106       C113 1.304       .   A
O107       C114 1.304       .   A
O108       C115 1.304       .   A
O109       C115 1.304       .   A
C110       C352 1.540   1_565   S
C111      C1150 1.540       .   S
C112      C1321 1.540       .   S
C113       C356 1.540   1_665   S
C114      C1264 1.540       .   S
C115      C1154 1.540       .   S
Zn116      O120 1.942       .   S
Zn116      O121 1.922       .   S
Zn116      O125 1.922       .   S
Zn116      O132 1.922       .   S
Zn117      O120 1.942       .   S
Zn117      O122 1.922       .   S
Zn117      O124 1.922       .   S
Zn117      O128 1.922       .   S
Zn118      O120 1.942       .   S
Zn118      O123 1.922       .   S
Zn118      O126 1.922       .   S
Zn118      O129 1.922       .   S
Zn119      O120 1.942       .   S
Zn119      O127 1.922       .   S
Zn119      O130 1.922       .   S
Zn119      O131 1.922       .   S
O121       C133 1.304       .   A
O122       C134 1.304       .   A
O123       C135 1.304       .   A
O124       C133 1.304       .   A
O125       C135 1.304       .   A
O126       C134 1.304       .   A
O127       C136 1.304       .   A
O128       C137 1.304       .   A
O129       C136 1.304       .   A
O130       C137 1.304       .   A
O131       C138 1.304       .   A
O132       C138 1.304       .   A
C133       C527 1.540   1_465   S
C134      C1097 1.540       .   S
C135      C1325 1.540       .   S
C136       C584 1.540   1_565   S
C137      C1382 1.540       .   S
C138      C1207 1.540   1_556   S
Zn139      O143 1.942       .   S
Zn139      O144 1.922       .   S
Zn139      O148 1.922       .   S
Zn139      O155 1.922       .   S
Zn140      O143 1.942       .   S
Zn140      O145 1.922       .   S
Zn140      O147 1.922       .   S
Zn140      O151 1.922       .   S
Zn141      O143 1.942       .   S
Zn141      O146 1.922       .   S
Zn141      O149 1.922       .   S
Zn141      O152 1.922       .   S
Zn142      O143 1.942       .   S
Zn142      O150 1.922       .   S
Zn142      O153 1.922       .   S
Zn142      O154 1.922       .   S
O144       C156 1.304       .   A
O145       C157 1.304       .   A
O146       C158 1.304       .   A
O147       C156 1.304       .   A
O148       C158 1.304       .   A
O149       C157 1.304       .   A
O150       C159 1.304       .   A
O151       C160 1.304       .   A
O152       C159 1.304       .   A
O153       C160 1.304       .   A
O154       C161 1.304       .   A
O155       C161 1.304       .   A
C156       C922 1.540   1_455   S
C157      C1211 1.540   1_545   S
C158      C1549 1.540       .   S
C159       C926 1.540       .   S
C160      C1439 1.540       .   S
C161      C1268 1.540       .   S
Zn162      O166 1.942       .   S
Zn162      O167 1.922       .   S
Zn162      O171 1.922       .   S
Zn162      O178 1.922       .   S
Zn163      O166 1.942       .   S
Zn163      O168 1.922       .   S
Zn163      O170 1.922       .   S
Zn163      O174 1.922       .   S
Zn164      O166 1.942       .   S
Zn164      O169 1.922       .   S
Zn164      O172 1.922       .   S
Zn164      O175 1.922       .   S
Zn165      O166 1.942       .   S
Zn165      O173 1.922       .   S
Zn165      O176 1.922       .   S
Zn165      O177 1.922       .   S
O167       C179 1.304       .   A
O168       C180 1.304       .   A
O169       C181 1.304       .   A
O170       C179 1.304       .   A
O171       C181 1.304       .   A
O172       C180 1.304       .   A
O173       C182 1.304       .   A
O174       C183 1.304       .   A
O175       C182 1.304       .   A
O176       C183 1.304       .   A
O177       C184 1.304       .   A
O178       C184 1.304       .   A
C179      C1036 1.540   1_455   S
C180      C1378 1.540   1_545   S
C181      C1492 1.540       .   S
C182      C1093 1.540       .   S
C183      C1496 1.540   1_556   S
C184      C1435 1.540       .   S
C1496     C1497 0.018       .   A
C1496     C1501 0.018       .   A
C1497     C1498 0.017       .   A
C1497     H1504 0.014       .   A
C1498     C1499 0.018       .   A
C1498     H1503 0.014       .   A
C1499     C1500 0.018       .   A
C1499     C1502 0.018       .   A
C1500     C1501 0.018       .   A
C1500     C1506 0.018       .   A
C1501     C1505 0.018       .   A
C1502     N1517 0.017       .   A
C1502     N1521 0.017       .   A
C1505     C1508 0.018       .   A
C1505     O1516 0.018       .   A
C1506     C1507 0.017       .   A
C1506     H1509 0.014       .   A
C1507     C1508 0.017       .   A
C1507     H1510 0.014       .   A
C1508     H1511 0.014       .   A
C1512     H1513 0.014       .   A
C1512     H1514 0.014       .   A
C1512     H1515 0.014       .   A
C1512     O1516 0.019       .   A
N1517     N1518 0.017       .   A
N1518     C1519 0.018       .   A
C1519     N1520 0.017       .   A
C1519     C1522 0.018       .   A
N1520     N1521 0.017       .   A
C1522     C1523 0.018       .   A
C1522     C1539 0.018       .   A
C1523     C1524 0.018       .   A
C1523     H1528 0.014       .   A
C1524     C1525 0.018       .   A
C1524     H1540 0.014       .   A
C1525     C1526 0.017       .   A
C1525     C1531 0.017       .   A
C1526     O1530 0.018       .   A
C1526     C1539 0.018       .   A
C1527     C1536 0.018       .   A
C1527     N1542 0.017       .   A
C1527     C1546 0.018       .   A
H1529     C1539 0.014       .   A
O1530     C1533 0.018       .   A
C1531     C1532 0.017       .   A
C1531     C1533 0.017       .   A
C1532     C1535 0.017       .   A
C1532     H1541 0.014       .   A
C1533     C1534 0.018       .   A
C1534     C1536 0.018       .   A
C1534     H1537 0.014       .   A
C1535     C1536 0.018       .   A
C1535     H1538 0.014       .   A
N1542     C1543 0.017       .   A
C1543     C1544 0.018       .   A
C1543     N1550 0.017       .   A
C1544     N1545 0.017       .   A
C1544     N1551 0.017       .   A
N1545     C1546 0.017       .   A
C1546     H1547 0.014       .   A
C1548     C1549 0.018       .   A
C1548     N1550 0.017       .   A
C1548     H1552 0.014       .   A
C1549     N1551 0.017       .   A
C1439     C1440 0.018       .   A
C1439     C1444 0.018       .   A
C1440     C1441 0.017       .   A
C1440     H1447 0.014       .   A
C1441     C1442 0.018       .   A
C1441     H1446 0.014       .   A
C1442     C1443 0.018       .   A
C1442     C1445 0.018       .   A
C1443     C1444 0.018       .   A
C1443     C1449 0.018       .   A
C1444     C1448 0.018       .   A
C1445     N1460 0.017       .   A
C1445     N1464 0.017       .   A
C1448     C1451 0.018       .   A
C1448     O1459 0.018       .   A
C1449     C1450 0.017       .   A
C1449     H1452 0.014       .   A
C1450     C1451 0.017       .   A
C1450     H1453 0.014       .   A
C1451     H1454 0.014       .   A
C1455     H1456 0.014       .   A
C1455     H1457 0.014       .   A
C1455     H1458 0.014       .   A
C1455     O1459 0.019       .   A
N1460     N1461 0.017       .   A
N1461     C1462 0.018       .   A
C1462     N1463 0.017       .   A
C1462     C1465 0.018       .   A
N1463     N1464 0.017       .   A
C1465     C1466 0.018       .   A
C1465     C1482 0.018       .   A
C1466     C1467 0.018       .   A
C1466     H1471 0.014       .   A
C1467     C1468 0.018       .   A
C1467     H1483 0.014       .   A
C1468     C1469 0.017       .   A
C1468     C1474 0.017       .   A
C1469     O1473 0.018       .   A
C1469     C1482 0.018       .   A
C1470     C1479 0.018       .   A
C1470     N1485 0.017       .   A
C1470     C1489 0.018       .   A
H1472     C1482 0.014       .   A
O1473     C1476 0.018       .   A
C1474     C1475 0.017       .   A
C1474     C1476 0.017       .   A
C1475     C1478 0.017       .   A
C1475     H1484 0.014       .   A
C1476     C1477 0.018       .   A
C1477     C1479 0.018       .   A
C1477     H1480 0.014       .   A
C1478     C1479 0.018       .   A
C1478     H1481 0.014       .   A
N1485     C1486 0.017       .   A
C1486     C1487 0.018       .   A
C1486     N1493 0.017       .   A
C1487     N1488 0.017       .   A
C1487     N1494 0.017       .   A
N1488     C1489 0.017       .   A
C1489     H1490 0.014       .   A
C1491     C1492 0.018       .   A
C1491     N1493 0.017       .   A
C1491     H1495 0.014       .   A
C1492     N1494 0.017       .   A
C1382     C1383 0.018       .   A
C1382     C1387 0.018       .   A
C1383     C1384 0.017       .   A
C1383     H1390 0.014       .   A
C1384     C1385 0.018       .   A
C1384     H1389 0.014       .   A
C1385     C1386 0.018       .   A
C1385     C1388 0.018       .   A
C1386     C1387 0.018       .   A
C1386     C1392 0.018       .   A
C1387     C1391 0.018       .   A
C1388     N1403 0.017       .   A
C1388     N1407 0.017       .   A
C1391     C1394 0.018       .   A
C1391     O1402 0.018       .   A
C1392     C1393 0.017       .   A
C1392     H1395 0.014       .   A
C1393     C1394 0.017       .   A
C1393     H1396 0.014       .   A
C1394     H1397 0.014       .   A
C1398     H1399 0.014       .   A
C1398     H1400 0.014       .   A
C1398     H1401 0.014       .   A
C1398     O1402 0.019       .   A
N1403     N1404 0.017       .   A
N1404     C1405 0.018       .   A
C1405     N1406 0.017       .   A
C1405     C1408 0.018       .   A
N1406     N1407 0.017       .   A
C1408     C1409 0.018       .   A
C1408     C1425 0.018       .   A
C1409     C1410 0.018       .   A
C1409     H1414 0.014       .   A
C1410     C1411 0.018       .   A
C1410     H1426 0.014       .   A
C1411     C1412 0.017       .   A
C1411     C1417 0.017       .   A
C1412     O1416 0.018       .   A
C1412     C1425 0.018       .   A
C1413     C1422 0.018       .   A
C1413     N1428 0.017       .   A
C1413     C1432 0.018       .   A
H1415     C1425 0.014       .   A
O1416     C1419 0.018       .   A
C1417     C1418 0.017       .   A
C1417     C1419 0.017       .   A
C1418     C1421 0.017       .   A
C1418     H1427 0.014       .   A
C1419     C1420 0.018       .   A
C1420     C1422 0.018       .   A
C1420     H1423 0.014       .   A
C1421     C1422 0.018       .   A
C1421     H1424 0.014       .   A
N1428     C1429 0.017       .   A
C1429     C1430 0.018       .   A
C1429     N1436 0.017       .   A
C1430     N1431 0.017       .   A
C1430     N1437 0.017       .   A
N1431     C1432 0.017       .   A
C1432     H1433 0.014       .   A
C1434     C1435 0.018       .   A
C1434     N1436 0.017       .   A
C1434     H1438 0.014       .   A
C1435     N1437 0.017       .   A
C1325     C1326 0.018       .   A
C1325     C1330 0.018       .   A
C1326     C1327 0.017       .   A
C1326     H1333 0.014       .   A
C1327     C1328 0.018       .   A
C1327     H1332 0.014       .   A
C1328     C1329 0.018       .   A
C1328     C1331 0.018       .   A
C1329     C1330 0.018       .   A
C1329     C1335 0.018       .   A
C1330     C1334 0.018       .   A
C1331     N1346 0.017       .   A
C1331     N1350 0.017       .   A
C1334     C1337 0.018       .   A
C1334     O1345 0.018       .   A
C1335     C1336 0.017       .   A
C1335     H1338 0.014       .   A
C1336     C1337 0.017       .   A
C1336     H1339 0.014       .   A
C1337     H1340 0.014       .   A
C1341     H1342 0.014       .   A
C1341     H1343 0.014       .   A
C1341     H1344 0.014       .   A
C1341     O1345 0.019       .   A
N1346     N1347 0.017       .   A
N1347     C1348 0.018       .   A
C1348     N1349 0.017       .   A
C1348     C1351 0.018       .   A
N1349     N1350 0.017       .   A
C1351     C1352 0.018       .   A
C1351     C1368 0.018       .   A
C1352     C1353 0.018       .   A
C1352     H1357 0.014       .   A
C1353     C1354 0.018       .   A
C1353     H1369 0.014       .   A
C1354     C1355 0.017       .   A
C1354     C1360 0.017       .   A
C1355     O1359 0.018       .   A
C1355     C1368 0.018       .   A
C1356     C1365 0.018       .   A
C1356     N1371 0.017       .   A
C1356     C1375 0.018       .   A
H1358     C1368 0.014       .   A
O1359     C1362 0.018       .   A
C1360     C1361 0.017       .   A
C1360     C1362 0.017       .   A
C1361     C1364 0.017       .   A
C1361     H1370 0.014       .   A
C1362     C1363 0.018       .   A
C1363     C1365 0.018       .   A
C1363     H1366 0.014       .   A
C1364     C1365 0.018       .   A
C1364     H1367 0.014       .   A
N1371     C1372 0.017       .   A
C1372     C1373 0.018       .   A
C1372     N1379 0.017       .   A
C1373     N1374 0.017       .   A
C1373     N1380 0.017       .   A
N1374     C1375 0.017       .   A
C1375     H1376 0.014       .   A
C1377     C1378 0.018       .   A
C1377     N1379 0.017       .   A
C1377     H1381 0.014       .   A
C1378     N1380 0.017       .   A
C1268     C1269 0.018       .   A
C1268     C1273 0.018       .   A
C1269     C1270 0.017       .   A
C1269     H1276 0.014       .   A
C1270     C1271 0.018       .   A
C1270     H1275 0.014       .   A
C1271     C1272 0.018       .   A
C1271     C1274 0.018       .   A
C1272     C1273 0.018       .   A
C1272     C1278 0.018       .   A
C1273     C1277 0.018       .   A
C1274     N1289 0.017       .   A
C1274     N1293 0.017       .   A
C1277     C1280 0.018       .   A
C1277     O1288 0.018       .   A
C1278     C1279 0.017       .   A
C1278     H1281 0.014       .   A
C1279     C1280 0.017       .   A
C1279     H1282 0.014       .   A
C1280     H1283 0.014       .   A
C1284     H1285 0.014       .   A
C1284     H1286 0.014       .   A
C1284     H1287 0.014       .   A
C1284     O1288 0.019       .   A
N1289     N1290 0.017       .   A
N1290     C1291 0.018       .   A
C1291     N1292 0.017       .   A
C1291     C1294 0.018       .   A
N1292     N1293 0.017       .   A
C1294     C1295 0.018       .   A
C1294     C1311 0.018       .   A
C1295     C1296 0.018       .   A
C1295     H1300 0.014       .   A
C1296     C1297 0.018       .   A
C1296     H1312 0.014       .   A
C1297     C1298 0.017       .   A
C1297     C1303 0.017       .   A
C1298     O1302 0.018       .   A
C1298     C1311 0.018       .   A
C1299     C1308 0.018       .   A
C1299     N1314 0.017       .   A
C1299     C1318 0.018       .   A
H1301     C1311 0.014       .   A
O1302     C1305 0.018       .   A
C1303     C1304 0.017       .   A
C1303     C1305 0.017       .   A
C1304     C1307 0.017       .   A
C1304     H1313 0.014       .   A
C1305     C1306 0.018       .   A
C1306     C1308 0.018       .   A
C1306     H1309 0.014       .   A
C1307     C1308 0.018       .   A
C1307     H1310 0.014       .   A
N1314     C1315 0.017       .   A
C1315     C1316 0.018       .   A
C1315     N1322 0.017       .   A
C1316     N1317 0.017       .   A
C1316     N1323 0.017       .   A
N1317     C1318 0.017       .   A
C1318     H1319 0.014       .   A
C1320     C1321 0.018       .   A
C1320     N1322 0.017       .   A
C1320     H1324 0.014       .   A
C1321     N1323 0.017       .   A
C1211     C1212 0.018       .   A
C1211     C1216 0.018       .   A
C1212     C1213 0.017       .   A
C1212     H1219 0.014       .   A
C1213     C1214 0.018       .   A
C1213     H1218 0.014       .   A
C1214     C1215 0.018       .   A
C1214     C1217 0.018       .   A
C1215     C1216 0.018       .   A
C1215     C1221 0.018       .   A
C1216     C1220 0.018       .   A
C1217     N1232 0.017       .   A
C1217     N1236 0.017       .   A
C1220     C1223 0.018       .   A
C1220     O1231 0.018       .   A
C1221     C1222 0.017       .   A
C1221     H1224 0.014       .   A
C1222     C1223 0.017       .   A
C1222     H1225 0.014       .   A
C1223     H1226 0.014       .   A
C1227     H1228 0.014       .   A
C1227     H1229 0.014       .   A
C1227     H1230 0.014       .   A
C1227     O1231 0.019       .   A
N1232     N1233 0.017       .   A
N1233     C1234 0.018       .   A
C1234     N1235 0.017       .   A
C1234     C1237 0.018       .   A
N1235     N1236 0.017       .   A
C1237     C1238 0.018       .   A
C1237     C1254 0.018       .   A
C1238     C1239 0.018       .   A
C1238     H1243 0.014       .   A
C1239     C1240 0.018       .   A
C1239     H1255 0.014       .   A
C1240     C1241 0.017       .   A
C1240     C1246 0.017       .   A
C1241     O1245 0.018       .   A
C1241     C1254 0.018       .   A
C1242     C1251 0.018       .   A
C1242     N1257 0.017       .   A
C1242     C1261 0.018       .   A
H1244     C1254 0.014       .   A
O1245     C1248 0.018       .   A
C1246     C1247 0.017       .   A
C1246     C1248 0.017       .   A
C1247     C1250 0.017       .   A
C1247     H1256 0.014       .   A
C1248     C1249 0.018       .   A
C1249     C1251 0.018       .   A
C1249     H1252 0.014       .   A
C1250     C1251 0.018       .   A
C1250     H1253 0.014       .   A
N1257     C1258 0.017       .   A
C1258     C1259 0.018       .   A
C1258     N1265 0.017       .   A
C1259     N1260 0.017       .   A
C1259     N1266 0.017       .   A
N1260     C1261 0.017       .   A
C1261     H1262 0.014       .   A
C1263     C1264 0.018       .   A
C1263     N1265 0.017       .   A
C1263     H1267 0.014       .   A
C1264     N1266 0.017       .   A
C1154     C1155 0.018       .   A
C1154     C1159 0.018       .   A
C1155     C1156 0.017       .   A
C1155     H1162 0.014       .   A
C1156     C1157 0.018       .   A
C1156     H1161 0.014       .   A
C1157     C1158 0.018       .   A
C1157     C1160 0.018       .   A
C1158     C1159 0.018       .   A
C1158     C1164 0.018       .   A
C1159     C1163 0.018       .   A
C1160     N1175 0.017       .   A
C1160     N1179 0.017       .   A
C1163     C1166 0.018       .   A
C1163     O1174 0.018       .   A
C1164     C1165 0.017       .   A
C1164     H1167 0.014       .   A
C1165     C1166 0.017       .   A
C1165     H1168 0.014       .   A
C1166     H1169 0.014       .   A
C1170     H1171 0.014       .   A
C1170     H1172 0.014       .   A
C1170     H1173 0.014       .   A
C1170     O1174 0.019       .   A
N1175     N1176 0.017       .   A
N1176     C1177 0.018       .   A
C1177     N1178 0.017       .   A
C1177     C1180 0.018       .   A
N1178     N1179 0.017       .   A
C1180     C1181 0.018       .   A
C1180     C1197 0.018       .   A
C1181     C1182 0.018       .   A
C1181     H1186 0.014       .   A
C1182     C1183 0.018       .   A
C1182     H1198 0.014       .   A
C1183     C1184 0.017       .   A
C1183     C1189 0.017       .   A
C1184     O1188 0.018       .   A
C1184     C1197 0.018       .   A
C1185     C1194 0.018       .   A
C1185     N1200 0.017       .   A
C1185     C1204 0.018       .   A
H1187     C1197 0.014       .   A
O1188     C1191 0.018       .   A
C1189     C1190 0.017       .   A
C1189     C1191 0.017       .   A
C1190     C1193 0.017       .   A
C1190     H1199 0.014       .   A
C1191     C1192 0.018       .   A
C1192     C1194 0.018       .   A
C1192     H1195 0.014       .   A
C1193     C1194 0.018       .   A
C1193     H1196 0.014       .   A
N1200     C1201 0.017       .   A
C1201     C1202 0.018       .   A
C1201     N1208 0.017       .   A
C1202     N1203 0.017       .   A
C1202     N1209 0.017       .   A
N1203     C1204 0.017       .   A
C1204     H1205 0.014       .   A
C1206     C1207 0.018       .   A
C1206     N1208 0.017       .   A
C1206     H1210 0.014       .   A
C1207     N1209 0.017       .   A
C1097     C1098 0.018       .   A
C1097     C1102 0.018       .   A
C1098     C1099 0.017       .   A
C1098     H1105 0.014       .   A
C1099     C1100 0.018       .   A
C1099     H1104 0.014       .   A
C1100     C1101 0.018       .   A
C1100     C1103 0.018       .   A
C1101     C1102 0.018       .   A
C1101     C1107 0.018       .   A
C1102     C1106 0.018       .   A
C1103     N1118 0.017       .   A
C1103     N1122 0.017       .   A
C1106     C1109 0.018       .   A
C1106     O1117 0.018       .   A
C1107     C1108 0.017       .   A
C1107     H1110 0.014       .   A
C1108     C1109 0.017       .   A
C1108     H1111 0.014       .   A
C1109     H1112 0.014       .   A
C1113     H1114 0.014       .   A
C1113     H1115 0.014       .   A
C1113     H1116 0.014       .   A
C1113     O1117 0.019       .   A
N1118     N1119 0.017       .   A
N1119     C1120 0.018       .   A
C1120     N1121 0.017       .   A
C1120     C1123 0.018       .   A
N1121     N1122 0.017       .   A
C1123     C1124 0.018       .   A
C1123     C1140 0.018       .   A
C1124     C1125 0.018       .   A
C1124     H1129 0.014       .   A
C1125     C1126 0.018       .   A
C1125     H1141 0.014       .   A
C1126     C1127 0.017       .   A
C1126     C1132 0.017       .   A
C1127     O1131 0.018       .   A
C1127     C1140 0.018       .   A
C1128     C1137 0.018       .   A
C1128     N1143 0.017       .   A
C1128     C1147 0.018       .   A
H1130     C1140 0.014       .   A
O1131     C1134 0.018       .   A
C1132     C1133 0.017       .   A
C1132     C1134 0.017       .   A
C1133     C1136 0.017       .   A
C1133     H1142 0.014       .   A
C1134     C1135 0.018       .   A
C1135     C1137 0.018       .   A
C1135     H1138 0.014       .   A
C1136     C1137 0.018       .   A
C1136     H1139 0.014       .   A
N1143     C1144 0.017       .   A
C1144     C1145 0.018       .   A
C1144     N1151 0.017       .   A
C1145     N1146 0.017       .   A
C1145     N1152 0.017       .   A
N1146     C1147 0.017       .   A
C1147     H1148 0.014       .   A
C1149     C1150 0.018       .   A
C1149     N1151 0.017       .   A
C1149     H1153 0.014       .   A
C1150     N1152 0.017       .   A
C1040     C1041 0.018       .   A
C1040     C1045 0.018       .   A
C1041     C1042 0.017       .   A
C1041     H1048 0.014       .   A
C1042     C1043 0.018       .   A
C1042     H1047 0.014       .   A
C1043     C1044 0.018       .   A
C1043     C1046 0.018       .   A
C1044     C1045 0.018       .   A
C1044     C1050 0.018       .   A
C1045     C1049 0.018       .   A
C1046     N1061 0.017       .   A
C1046     N1065 0.017       .   A
C1049     C1052 0.018       .   A
C1049     O1060 0.018       .   A
C1050     C1051 0.017       .   A
C1050     H1053 0.014       .   A
C1051     C1052 0.017       .   A
C1051     H1054 0.014       .   A
C1052     H1055 0.014       .   A
C1056     H1057 0.014       .   A
C1056     H1058 0.014       .   A
C1056     H1059 0.014       .   A
C1056     O1060 0.019       .   A
N1061     N1062 0.017       .   A
N1062     C1063 0.018       .   A
C1063     N1064 0.017       .   A
C1063     C1066 0.018       .   A
N1064     N1065 0.017       .   A
C1066     C1067 0.018       .   A
C1066     C1083 0.018       .   A
C1067     C1068 0.018       .   A
C1067     H1072 0.014       .   A
C1068     C1069 0.018       .   A
C1068     H1084 0.014       .   A
C1069     C1070 0.017       .   A
C1069     C1075 0.017       .   A
C1070     O1074 0.018       .   A
C1070     C1083 0.018       .   A
C1071     C1080 0.018       .   A
C1071     N1086 0.017       .   A
C1071     C1090 0.018       .   A
H1073     C1083 0.014       .   A
O1074     C1077 0.018       .   A
C1075     C1076 0.017       .   A
C1075     C1077 0.017       .   A
C1076     C1079 0.017       .   A
C1076     H1085 0.014       .   A
C1077     C1078 0.018       .   A
C1078     C1080 0.018       .   A
C1078     H1081 0.014       .   A
C1079     C1080 0.018       .   A
C1079     H1082 0.014       .   A
N1086     C1087 0.017       .   A
C1087     C1088 0.018       .   A
C1087     N1094 0.017       .   A
C1088     N1089 0.017       .   A
C1088     N1095 0.017       .   A
N1089     C1090 0.017       .   A
C1090     H1091 0.014       .   A
C1092     C1093 0.018       .   A
C1092     N1094 0.017       .   A
C1092     H1096 0.014       .   A
C1093     N1095 0.017       .   A
C983       C984 0.018       .   A
C983       C988 0.018       .   A
C984       C985 0.017       .   A
C984       H991 0.014       .   A
C985       C986 0.018       .   A
C985       H990 0.014       .   A
C986       C987 0.018       .   A
C986       C989 0.018       .   A
C987       C988 0.018       .   A
C987       C993 0.018       .   A
C988       C992 0.018       .   A
C989      N1004 0.017       .   A
C989      N1008 0.017       .   A
C992       C995 0.018       .   A
C992      O1003 0.018       .   A
C993       C994 0.017       .   A
C993       H996 0.014       .   A
C994       C995 0.017       .   A
C994       H997 0.014       .   A
C995       H998 0.014       .   A
C999      H1000 0.014       .   A
C999      H1001 0.014       .   A
C999      H1002 0.014       .   A
C999      O1003 0.019       .   A
N1004     N1005 0.017       .   A
N1005     C1006 0.018       .   A
C1006     N1007 0.017       .   A
C1006     C1009 0.018       .   A
N1007     N1008 0.017       .   A
C1009     C1010 0.018       .   A
C1009     C1026 0.018       .   A
C1010     C1011 0.018       .   A
C1010     H1015 0.014       .   A
C1011     C1012 0.018       .   A
C1011     H1027 0.014       .   A
C1012     C1013 0.017       .   A
C1012     C1018 0.017       .   A
C1013     O1017 0.018       .   A
C1013     C1026 0.018       .   A
C1014     C1023 0.018       .   A
C1014     N1029 0.017       .   A
C1014     C1033 0.018       .   A
H1016     C1026 0.014       .   A
O1017     C1020 0.018       .   A
C1018     C1019 0.017       .   A
C1018     C1020 0.017       .   A
C1019     C1022 0.017       .   A
C1019     H1028 0.014       .   A
C1020     C1021 0.018       .   A
C1021     C1023 0.018       .   A
C1021     H1024 0.014       .   A
C1022     C1023 0.018       .   A
C1022     H1025 0.014       .   A
N1029     C1030 0.017       .   A
C1030     C1031 0.018       .   A
C1030     N1037 0.017       .   A
C1031     N1032 0.017       .   A
C1031     N1038 0.017       .   A
N1032     C1033 0.017       .   A
C1033     H1034 0.014       .   A
C1035     C1036 0.018       .   A
C1035     N1037 0.017       .   A
C1035     H1039 0.014       .   A
C1036     N1038 0.017       .   A
C926       C927 0.018       .   A
C926       C931 0.018       .   A
C927       C928 0.017       .   A
C927       H934 0.014       .   A
C928       C929 0.018       .   A
C928       H933 0.014       .   A
C929       C930 0.018       .   A
C929       C932 0.018       .   A
C930       C931 0.018       .   A
C930       C936 0.018       .   A
C931       C935 0.018       .   A
C932       N947 0.017       .   A
C932       N951 0.017       .   A
C935       C938 0.018       .   A
C935       O946 0.018       .   A
C936       C937 0.017       .   A
C936       H939 0.014       .   A
C937       C938 0.017       .   A
C937       H940 0.014       .   A
C938       H941 0.014       .   A
C942       H943 0.014       .   A
C942       H944 0.014       .   A
C942       H945 0.014       .   A
C942       O946 0.019       .   A
N947       N948 0.017       .   A
N948       C949 0.018       .   A
C949       N950 0.017       .   A
C949       C952 0.018       .   A
N950       N951 0.017       .   A
C952       C953 0.018       .   A
C952       C969 0.018       .   A
C953       C954 0.018       .   A
C953       H958 0.014       .   A
C954       C955 0.018       .   A
C954       H970 0.014       .   A
C955       C956 0.017       .   A
C955       C961 0.017       .   A
C956       O960 0.018       .   A
C956       C969 0.018       .   A
C957       C966 0.018       .   A
C957       N972 0.017       .   A
C957       C976 0.018       .   A
H959       C969 0.014       .   A
O960       C963 0.018       .   A
C961       C962 0.017       .   A
C961       C963 0.017       .   A
C962       C965 0.017       .   A
C962       H971 0.014       .   A
C963       C964 0.018       .   A
C964       C966 0.018       .   A
C964       H967 0.014       .   A
C965       C966 0.018       .   A
C965       H968 0.014       .   A
N972       C973 0.017       .   A
C973       C974 0.018       .   A
C973       N980 0.017       .   A
C974       N975 0.017       .   A
C974       N981 0.017       .   A
N975       C976 0.017       .   A
C976       H977 0.014       .   A
C978       C979 0.018       .   A
C978       N980 0.017       .   A
C978       H982 0.014       .   A
C979       N981 0.017       .   A
C869       C870 0.018       .   A
C869       C874 0.018       .   A
C870       C871 0.017       .   A
C870       H877 0.014       .   A
C871       C872 0.018       .   A
C871       H876 0.014       .   A
C872       C873 0.018       .   A
C872       C875 0.018       .   A
C873       C874 0.018       .   A
C873       C879 0.018       .   A
C874       C878 0.018       .   A
C875       N890 0.017       .   A
C875       N894 0.017       .   A
C878       C881 0.018       .   A
C878       O889 0.018       .   A
C879       C880 0.017       .   A
C879       H882 0.014       .   A
C880       C881 0.017       .   A
C880       H883 0.014       .   A
C881       H884 0.014       .   A
C885       H886 0.014       .   A
C885       H887 0.014       .   A
C885       H888 0.014       .   A
C885       O889 0.019       .   A
N890       N891 0.017       .   A
N891       C892 0.018       .   A
C892       N893 0.017       .   A
C892       C895 0.018       .   A
N893       N894 0.017       .   A
C895       C896 0.018       .   A
C895       C912 0.018       .   A
C896       C897 0.018       .   A
C896       H901 0.014       .   A
C897       C898 0.018       .   A
C897       H913 0.014       .   A
C898       C899 0.017       .   A
C898       C904 0.017       .   A
C899       O903 0.018       .   A
C899       C912 0.018       .   A
C900       C909 0.018       .   A
C900       N915 0.017       .   A
C900       C919 0.018       .   A
H902       C912 0.014       .   A
O903       C906 0.018       .   A
C904       C905 0.017       .   A
C904       C906 0.017       .   A
C905       C908 0.017       .   A
C905       H914 0.014       .   A
C906       C907 0.018       .   A
C907       C909 0.018       .   A
C907       H910 0.014       .   A
C908       C909 0.018       .   A
C908       H911 0.014       .   A
N915       C916 0.017       .   A
C916       C917 0.018       .   A
C916       N923 0.017       .   A
C917       N918 0.017       .   A
C917       N924 0.017       .   A
N918       C919 0.017       .   A
C919       H920 0.014       .   A
C921       C922 0.018       .   A
C921       N923 0.017       .   A
C921       H925 0.014       .   A
C922       N924 0.017       .   A
C812       C813 0.018       .   A
C812       C817 0.018       .   A
C813       C814 0.017       .   A
C813       H820 0.014       .   A
C814       C815 0.018       .   A
C814       H819 0.014       .   A
C815       C816 0.018       .   A
C815       C818 0.018       .   A
C816       C817 0.018       .   A
C816       C822 0.018       .   A
C817       C821 0.018       .   A
C818       N833 0.017       .   A
C818       N837 0.017       .   A
C821       C824 0.018       .   A
C821       O832 0.018       .   A
C822       C823 0.017       .   A
C822       H825 0.014       .   A
C823       C824 0.017       .   A
C823       H826 0.014       .   A
C824       H827 0.014       .   A
C828       H829 0.014       .   A
C828       H830 0.014       .   A
C828       H831 0.014       .   A
C828       O832 0.019       .   A
N833       N834 0.017       .   A
N834       C835 0.018       .   A
C835       N836 0.017       .   A
C835       C838 0.018       .   A
N836       N837 0.017       .   A
C838       C839 0.018       .   A
C838       C855 0.018       .   A
C839       C840 0.018       .   A
C839       H844 0.014       .   A
C840       C841 0.018       .   A
C840       H856 0.014       .   A
C841       C842 0.017       .   A
C841       C847 0.017       .   A
C842       O846 0.018       .   A
C842       C855 0.018       .   A
C843       C852 0.018       .   A
C843       N858 0.017       .   A
C843       C862 0.018       .   A
H845       C855 0.014       .   A
O846       C849 0.018       .   A
C847       C848 0.017       .   A
C847       C849 0.017       .   A
C848       C851 0.017       .   A
C848       H857 0.014       .   A
C849       C850 0.018       .   A
C850       C852 0.018       .   A
C850       H853 0.014       .   A
C851       C852 0.018       .   A
C851       H854 0.014       .   A
N858       C859 0.017       .   A
C859       C860 0.018       .   A
C859       N866 0.017       .   A
C860       N861 0.017       .   A
C860       N867 0.017       .   A
N861       C862 0.017       .   A
C862       H863 0.014       .   A
C864       C865 0.018       .   A
C864       N866 0.017       .   A
C864       H868 0.014       .   A
C865       N867 0.017       .   A
C755       C756 0.018       .   A
C755       C760 0.018       .   A
C756       C757 0.017       .   A
C756       H763 0.014       .   A
C757       C758 0.018       .   A
C757       H762 0.014       .   A
C758       C759 0.018       .   A
C758       C761 0.018       .   A
C759       C760 0.018       .   A
C759       C765 0.018       .   A
C760       C764 0.018       .   A
C761       N776 0.017       .   A
C761       N780 0.017       .   A
C764       C767 0.018       .   A
C764       O775 0.018       .   A
C765       C766 0.017       .   A
C765       H768 0.014       .   A
C766       C767 0.017       .   A
C766       H769 0.014       .   A
C767       H770 0.014       .   A
C771       H772 0.014       .   A
C771       H773 0.014       .   A
C771       H774 0.014       .   A
C771       O775 0.019       .   A
N776       N777 0.017       .   A
N777       C778 0.018       .   A
C778       N779 0.017       .   A
C778       C781 0.018       .   A
N779       N780 0.017       .   A
C781       C782 0.018       .   A
C781       C798 0.018       .   A
C782       C783 0.018       .   A
C782       H787 0.014       .   A
C783       C784 0.018       .   A
C783       H799 0.014       .   A
C784       C785 0.017       .   A
C784       C790 0.017       .   A
C785       O789 0.018       .   A
C785       C798 0.018       .   A
C786       C795 0.018       .   A
C786       N801 0.017       .   A
C786       C805 0.018       .   A
H788       C798 0.014       .   A
O789       C792 0.018       .   A
C790       C791 0.017       .   A
C790       C792 0.017       .   A
C791       C794 0.017       .   A
C791       H800 0.014       .   A
C792       C793 0.018       .   A
C793       C795 0.018       .   A
C793       H796 0.014       .   A
C794       C795 0.018       .   A
C794       H797 0.014       .   A
N801       C802 0.017       .   A
C802       C803 0.018       .   A
C802       N809 0.017       .   A
C803       N804 0.017       .   A
C803       N810 0.017       .   A
N804       C805 0.017       .   A
C805       H806 0.014       .   A
C807       C808 0.018       .   A
C807       N809 0.017       .   A
C807       H811 0.014       .   A
C808       N810 0.017       .   A
C698       C699 0.018       .   A
C698       C703 0.018       .   A
C699       C700 0.017       .   A
C699       H706 0.014       .   A
C700       C701 0.018       .   A
C700       H705 0.014       .   A
C701       C702 0.018       .   A
C701       C704 0.018       .   A
C702       C703 0.018       .   A
C702       C708 0.018       .   A
C703       C707 0.018       .   A
C704       N719 0.017       .   A
C704       N723 0.017       .   A
C707       C710 0.018       .   A
C707       O718 0.018       .   A
C708       C709 0.017       .   A
C708       H711 0.014       .   A
C709       C710 0.017       .   A
C709       H712 0.014       .   A
C710       H713 0.014       .   A
C714       H715 0.014       .   A
C714       H716 0.014       .   A
C714       H717 0.014       .   A
C714       O718 0.019       .   A
N719       N720 0.017       .   A
N720       C721 0.018       .   A
C721       N722 0.017       .   A
C721       C724 0.018       .   A
N722       N723 0.017       .   A
C724       C725 0.018       .   A
C724       C741 0.018       .   A
C725       C726 0.018       .   A
C725       H730 0.014       .   A
C726       C727 0.018       .   A
C726       H742 0.014       .   A
C727       C728 0.017       .   A
C727       C733 0.017       .   A
C728       O732 0.018       .   A
C728       C741 0.018       .   A
C729       C738 0.018       .   A
C729       N744 0.017       .   A
C729       C748 0.018       .   A
H731       C741 0.014       .   A
O732       C735 0.018       .   A
C733       C734 0.017       .   A
C733       C735 0.017       .   A
C734       C737 0.017       .   A
C734       H743 0.014       .   A
C735       C736 0.018       .   A
C736       C738 0.018       .   A
C736       H739 0.014       .   A
C737       C738 0.018       .   A
C737       H740 0.014       .   A
N744       C745 0.017       .   A
C745       C746 0.018       .   A
C745       N752 0.017       .   A
C746       N747 0.017       .   A
C746       N753 0.017       .   A
N747       C748 0.017       .   A
C748       H749 0.014       .   A
C750       C751 0.018       .   A
C750       N752 0.017       .   A
C750       H754 0.014       .   A
C751       N753 0.017       .   A
C641       C642 0.018       .   A
C641       C646 0.018       .   A
C642       C643 0.017       .   A
C642       H649 0.014       .   A
C643       C644 0.018       .   A
C643       H648 0.014       .   A
C644       C645 0.018       .   A
C644       C647 0.018       .   A
C645       C646 0.018       .   A
C645       C651 0.018       .   A
C646       C650 0.018       .   A
C647       N662 0.017       .   A
C647       N666 0.017       .   A
C650       C653 0.018       .   A
C650       O661 0.018       .   A
C651       C652 0.017       .   A
C651       H654 0.014       .   A
C652       C653 0.017       .   A
C652       H655 0.014       .   A
C653       H656 0.014       .   A
C657       H658 0.014       .   A
C657       H659 0.014       .   A
C657       H660 0.014       .   A
C657       O661 0.019       .   A
N662       N663 0.017       .   A
N663       C664 0.018       .   A
C664       N665 0.017       .   A
C664       C667 0.018       .   A
N665       N666 0.017       .   A
C667       C668 0.018       .   A
C667       C684 0.018       .   A
C668       C669 0.018       .   A
C668       H673 0.014       .   A
C669       C670 0.018       .   A
C669       H685 0.014       .   A
C670       C671 0.017       .   A
C670       C676 0.017       .   A
C671       O675 0.018       .   A
C671       C684 0.018       .   A
C672       C681 0.018       .   A
C672       N687 0.017       .   A
C672       C691 0.018       .   A
H674       C684 0.014       .   A
O675       C678 0.018       .   A
C676       C677 0.017       .   A
C676       C678 0.017       .   A
C677       C680 0.017       .   A
C677       H686 0.014       .   A
C678       C679 0.018       .   A
C679       C681 0.018       .   A
C679       H682 0.014       .   A
C680       C681 0.018       .   A
C680       H683 0.014       .   A
N687       C688 0.017       .   A
C688       C689 0.018       .   A
C688       N695 0.017       .   A
C689       N690 0.017       .   A
C689       N696 0.017       .   A
N690       C691 0.017       .   A
C691       H692 0.014       .   A
C693       C694 0.018       .   A
C693       N695 0.017       .   A
C693       H697 0.014       .   A
C694       N696 0.017       .   A
C584       C585 0.018       .   A
C584       C589 0.018       .   A
C585       C586 0.017       .   A
C585       H592 0.014       .   A
C586       C587 0.018       .   A
C586       H591 0.014       .   A
C587       C588 0.018       .   A
C587       C590 0.018       .   A
C588       C589 0.018       .   A
C588       C594 0.018       .   A
C589       C593 0.018       .   A
C590       N605 0.017       .   A
C590       N609 0.017       .   A
C593       C596 0.018       .   A
C593       O604 0.018       .   A
C594       C595 0.017       .   A
C594       H597 0.014       .   A
C595       C596 0.017       .   A
C595       H598 0.014       .   A
C596       H599 0.014       .   A
C600       H601 0.014       .   A
C600       H602 0.014       .   A
C600       H603 0.014       .   A
C600       O604 0.019       .   A
N605       N606 0.017       .   A
N606       C607 0.018       .   A
C607       N608 0.017       .   A
C607       C610 0.018       .   A
N608       N609 0.017       .   A
C610       C611 0.018       .   A
C610       C627 0.018       .   A
C611       C612 0.018       .   A
C611       H616 0.014       .   A
C612       C613 0.018       .   A
C612       H628 0.014       .   A
C613       C614 0.017       .   A
C613       C619 0.017       .   A
C614       O618 0.018       .   A
C614       C627 0.018       .   A
C615       C624 0.018       .   A
C615       N630 0.017       .   A
C615       C634 0.018       .   A
H617       C627 0.014       .   A
O618       C621 0.018       .   A
C619       C620 0.017       .   A
C619       C621 0.017       .   A
C620       C623 0.017       .   A
C620       H629 0.014       .   A
C621       C622 0.018       .   A
C622       C624 0.018       .   A
C622       H625 0.014       .   A
C623       C624 0.018       .   A
C623       H626 0.014       .   A
N630       C631 0.017       .   A
C631       C632 0.018       .   A
C631       N638 0.017       .   A
C632       N633 0.017       .   A
C632       N639 0.017       .   A
N633       C634 0.017       .   A
C634       H635 0.014       .   A
C636       C637 0.018       .   A
C636       N638 0.017       .   A
C636       H640 0.014       .   A
C637       N639 0.017       .   A
C527       C528 0.018       .   A
C527       C532 0.018       .   A
C528       C529 0.017       .   A
C528       H535 0.014       .   A
C529       C530 0.018       .   A
C529       H534 0.014       .   A
C530       C531 0.018       .   A
C530       C533 0.018       .   A
C531       C532 0.018       .   A
C531       C537 0.018       .   A
C532       C536 0.018       .   A
C533       N548 0.017       .   A
C533       N552 0.017       .   A
C536       C539 0.018       .   A
C536       O547 0.018       .   A
C537       C538 0.017       .   A
C537       H540 0.014       .   A
C538       C539 0.017       .   A
C538       H541 0.014       .   A
C539       H542 0.014       .   A
C543       H544 0.014       .   A
C543       H545 0.014       .   A
C543       H546 0.014       .   A
C543       O547 0.019       .   A
N548       N549 0.017       .   A
N549       C550 0.018       .   A
C550       N551 0.017       .   A
C550       C553 0.018       .   A
N551       N552 0.017       .   A
C553       C554 0.018       .   A
C553       C570 0.018       .   A
C554       C555 0.018       .   A
C554       H559 0.014       .   A
C555       C556 0.018       .   A
C555       H571 0.014       .   A
C556       C557 0.017       .   A
C556       C562 0.017       .   A
C557       O561 0.018       .   A
C557       C570 0.018       .   A
C558       C567 0.018       .   A
C558       N573 0.017       .   A
C558       C577 0.018       .   A
H560       C570 0.014       .   A
O561       C564 0.018       .   A
C562       C563 0.017       .   A
C562       C564 0.017       .   A
C563       C566 0.017       .   A
C563       H572 0.014       .   A
C564       C565 0.018       .   A
C565       C567 0.018       .   A
C565       H568 0.014       .   A
C566       C567 0.018       .   A
C566       H569 0.014       .   A
N573       C574 0.017       .   A
C574       C575 0.018       .   A
C574       N581 0.017       .   A
C575       N576 0.017       .   A
C575       N582 0.017       .   A
N576       C577 0.017       .   A
C577       H578 0.014       .   A
C579       C580 0.018       .   A
C579       N581 0.017       .   A
C579       H583 0.014       .   A
C580       N582 0.017       .   A
C470       C471 0.018       .   A
C470       C475 0.018       .   A
C471       C472 0.017       .   A
C471       H478 0.014       .   A
C472       C473 0.018       .   A
C472       H477 0.014       .   A
C473       C474 0.018       .   A
C473       C476 0.018       .   A
C474       C475 0.018       .   A
C474       C480 0.018       .   A
C475       C479 0.018       .   A
C476       N491 0.017       .   A
C476       N495 0.017       .   A
C479       C482 0.018       .   A
C479       O490 0.018       .   A
C480       C481 0.017       .   A
C480       H483 0.014       .   A
C481       C482 0.017       .   A
C481       H484 0.014       .   A
C482       H485 0.014       .   A
C486       H487 0.014       .   A
C486       H488 0.014       .   A
C486       H489 0.014       .   A
C486       O490 0.019       .   A
N491       N492 0.017       .   A
N492       C493 0.018       .   A
C493       N494 0.017       .   A
C493       C496 0.018       .   A
N494       N495 0.017       .   A
C496       C497 0.018       .   A
C496       C513 0.018       .   A
C497       C498 0.018       .   A
C497       H502 0.014       .   A
C498       C499 0.018       .   A
C498       H514 0.014       .   A
C499       C500 0.017       .   A
C499       C505 0.017       .   A
C500       O504 0.018       .   A
C500       C513 0.018       .   A
C501       C510 0.018       .   A
C501       N516 0.017       .   A
C501       C520 0.018       .   A
H503       C513 0.014       .   A
O504       C507 0.018       .   A
C505       C506 0.017       .   A
C505       C507 0.017       .   A
C506       C509 0.017       .   A
C506       H515 0.014       .   A
C507       C508 0.018       .   A
C508       C510 0.018       .   A
C508       H511 0.014       .   A
C509       C510 0.018       .   A
C509       H512 0.014       .   A
N516       C517 0.017       .   A
C517       C518 0.018       .   A
C517       N524 0.017       .   A
C518       N519 0.017       .   A
C518       N525 0.017       .   A
N519       C520 0.017       .   A
C520       H521 0.014       .   A
C522       C523 0.018       .   A
C522       N524 0.017       .   A
C522       H526 0.014       .   A
C523       N525 0.017       .   A
C413       C414 0.018       .   A
C413       C418 0.018       .   A
C414       C415 0.017       .   A
C414       H421 0.014       .   A
C415       C416 0.018       .   A
C415       H420 0.014       .   A
C416       C417 0.018       .   A
C416       C419 0.018       .   A
C417       C418 0.018       .   A
C417       C423 0.018       .   A
C418       C422 0.018       .   A
C419       N434 0.017       .   A
C419       N438 0.017       .   A
C422       C425 0.018       .   A
C422       O433 0.018       .   A
C423       C424 0.017       .   A
C423       H426 0.014       .   A
C424       C425 0.017       .   A
C424       H427 0.014       .   A
C425       H428 0.014       .   A
C429       H430 0.014       .   A
C429       H431 0.014       .   A
C429       H432 0.014       .   A
C429       O433 0.019       .   A
N434       N435 0.017       .   A
N435       C436 0.018       .   A
C436       N437 0.017       .   A
C436       C439 0.018       .   A
N437       N438 0.017       .   A
C439       C440 0.018       .   A
C439       C456 0.018       .   A
C440       C441 0.018       .   A
C440       H445 0.014       .   A
C441       C442 0.018       .   A
C441       H457 0.014       .   A
C442       C443 0.017       .   A
C442       C448 0.017       .   A
C443       O447 0.018       .   A
C443       C456 0.018       .   A
C444       C453 0.018       .   A
C444       N459 0.017       .   A
C444       C463 0.018       .   A
H446       C456 0.014       .   A
O447       C450 0.018       .   A
C448       C449 0.017       .   A
C448       C450 0.017       .   A
C449       C452 0.017       .   A
C449       H458 0.014       .   A
C450       C451 0.018       .   A
C451       C453 0.018       .   A
C451       H454 0.014       .   A
C452       C453 0.018       .   A
C452       H455 0.014       .   A
N459       C460 0.017       .   A
C460       C461 0.018       .   A
C460       N467 0.017       .   A
C461       N462 0.017       .   A
C461       N468 0.017       .   A
N462       C463 0.017       .   A
C463       H464 0.014       .   A
C465       C466 0.018       .   A
C465       N467 0.017       .   A
C465       H469 0.014       .   A
C466       N468 0.017       .   A
C356       C357 0.018       .   A
C356       C361 0.018       .   A
C357       C358 0.017       .   A
C357       H364 0.014       .   A
C358       C359 0.018       .   A
C358       H363 0.014       .   A
C359       C360 0.018       .   A
C359       C362 0.018       .   A
C360       C361 0.018       .   A
C360       C366 0.018       .   A
C361       C365 0.018       .   A
C362       N377 0.017       .   A
C362       N381 0.017       .   A
C365       C368 0.018       .   A
C365       O376 0.018       .   A
C366       C367 0.017       .   A
C366       H369 0.014       .   A
C367       C368 0.017       .   A
C367       H370 0.014       .   A
C368       H371 0.014       .   A
C372       H373 0.014       .   A
C372       H374 0.014       .   A
C372       H375 0.014       .   A
C372       O376 0.019       .   A
N377       N378 0.017       .   A
N378       C379 0.018       .   A
C379       N380 0.017       .   A
C379       C382 0.018       .   A
N380       N381 0.017       .   A
C382       C383 0.018       .   A
C382       C399 0.018       .   A
C383       C384 0.018       .   A
C383       H388 0.014       .   A
C384       C385 0.018       .   A
C384       H400 0.014       .   A
C385       C386 0.017       .   A
C385       C391 0.017       .   A
C386       O390 0.018       .   A
C386       C399 0.018       .   A
C387       C396 0.018       .   A
C387       N402 0.017       .   A
C387       C406 0.018       .   A
H389       C399 0.014       .   A
O390       C393 0.018       .   A
C391       C392 0.017       .   A
C391       C393 0.017       .   A
C392       C395 0.017       .   A
C392       H401 0.014       .   A
C393       C394 0.018       .   A
C394       C396 0.018       .   A
C394       H397 0.014       .   A
C395       C396 0.018       .   A
C395       H398 0.014       .   A
N402       C403 0.017       .   A
C403       C404 0.018       .   A
C403       N410 0.017       .   A
C404       N405 0.017       .   A
C404       N411 0.017       .   A
N405       C406 0.017       .   A
C406       H407 0.014       .   A
C408       C409 0.018       .   A
C408       N410 0.017       .   A
C408       H412 0.014       .   A
C409       N411 0.017       .   A
C299       C300 0.018       .   A
C299       C304 0.018       .   A
C300       C301 0.017       .   A
C300       H307 0.014       .   A
C301       C302 0.018       .   A
C301       H306 0.014       .   A
C302       C303 0.018       .   A
C302       C305 0.018       .   A
C303       C304 0.018       .   A
C303       C309 0.018       .   A
C304       C308 0.018       .   A
C305       N320 0.017       .   A
C305       N324 0.017       .   A
C308       C311 0.018       .   A
C308       O319 0.018       .   A
C309       C310 0.017       .   A
C309       H312 0.014       .   A
C310       C311 0.017       .   A
C310       H313 0.014       .   A
C311       H314 0.014       .   A
C315       H316 0.014       .   A
C315       H317 0.014       .   A
C315       H318 0.014       .   A
C315       O319 0.019       .   A
N320       N321 0.017       .   A
N321       C322 0.018       .   A
C322       N323 0.017       .   A
C322       C325 0.018       .   A
N323       N324 0.017       .   A
C325       C326 0.018       .   A
C325       C342 0.018       .   A
C326       C327 0.018       .   A
C326       H331 0.014       .   A
C327       C328 0.018       .   A
C327       H343 0.014       .   A
C328       C329 0.017       .   A
C328       C334 0.017       .   A
C329       O333 0.018       .   A
C329       C342 0.018       .   A
C330       C339 0.018       .   A
C330       N345 0.017       .   A
C330       C349 0.018       .   A
H332       C342 0.014       .   A
O333       C336 0.018       .   A
C334       C335 0.017       .   A
C334       C336 0.017       .   A
C335       C338 0.017       .   A
C335       H344 0.014       .   A
C336       C337 0.018       .   A
C337       C339 0.018       .   A
C337       H340 0.014       .   A
C338       C339 0.018       .   A
C338       H341 0.014       .   A
N345       C346 0.017       .   A
C346       C347 0.018       .   A
C346       N353 0.017       .   A
C347       N348 0.017       .   A
C347       N354 0.017       .   A
N348       C349 0.017       .   A
C349       H350 0.014       .   A
C351       C352 0.018       .   A
C351       N353 0.017       .   A
C351       H355 0.014       .   A
C352       N354 0.017       .   A
C242       C243 0.018       .   A
C242       C247 0.018       .   A
C243       C244 0.017       .   A
C243       H250 0.014       .   A
C244       C245 0.018       .   A
C244       H249 0.014       .   A
C245       C246 0.018       .   A
C245       C248 0.018       .   A
C246       C247 0.018       .   A
C246       C252 0.018       .   A
C247       C251 0.018       .   A
C248       N263 0.017       .   A
C248       N267 0.017       .   A
C251       C254 0.018       .   A
C251       O262 0.018       .   A
C252       C253 0.017       .   A
C252       H255 0.014       .   A
C253       C254 0.017       .   A
C253       H256 0.014       .   A
C254       H257 0.014       .   A
C258       H259 0.014       .   A
C258       H260 0.014       .   A
C258       H261 0.014       .   A
C258       O262 0.019       .   A
N263       N264 0.017       .   A
N264       C265 0.018       .   A
C265       N266 0.017       .   A
C265       C268 0.018       .   A
N266       N267 0.017       .   A
C268       C269 0.018       .   A
C268       C285 0.018       .   A
C269       C270 0.018       .   A
C269       H274 0.014       .   A
C270       C271 0.018       .   A
C270       H286 0.014       .   A
C271       C272 0.017       .   A
C271       C277 0.017       .   A
C272       O276 0.018       .   A
C272       C285 0.018       .   A
C273       C282 0.018       .   A
C273       N288 0.017       .   A
C273       C292 0.018       .   A
H275       C285 0.014       .   A
O276       C279 0.018       .   A
C277       C278 0.017       .   A
C277       C279 0.017       .   A
C278       C281 0.017       .   A
C278       H287 0.014       .   A
C279       C280 0.018       .   A
C280       C282 0.018       .   A
C280       H283 0.014       .   A
C281       C282 0.018       .   A
C281       H284 0.014       .   A
N288       C289 0.017       .   A
C289       C290 0.018       .   A
C289       N296 0.017       .   A
C290       N291 0.017       .   A
C290       N297 0.017       .   A
N291       C292 0.017       .   A
C292       H293 0.014       .   A
C294       C295 0.018       .   A
C294       N296 0.017       .   A
C294       H298 0.014       .   A
C295       N297 0.017       .   A
C185       C186 0.018       .   A
C185       C190 0.018       .   A
C186       C187 0.017       .   A
C186       H193 0.014       .   A
C187       C188 0.018       .   A
C187       H192 0.014       .   A
C188       C189 0.018       .   A
C188       C191 0.018       .   A
C189       C190 0.018       .   A
C189       C195 0.018       .   A
C190       C194 0.018       .   A
C191       N206 0.017       .   A
C191       N210 0.017       .   A
C194       C197 0.018       .   A
C194       O205 0.018       .   A
C195       C196 0.017       .   A
C195       H198 0.014       .   A
C196       C197 0.017       .   A
C196       H199 0.014       .   A
C197       H200 0.014       .   A
C201       H202 0.014       .   A
C201       H203 0.014       .   A
C201       H204 0.014       .   A
C201       O205 0.019       .   A
N206       N207 0.017       .   A
N207       C208 0.018       .   A
C208       N209 0.017       .   A
C208       C211 0.018       .   A
N209       N210 0.017       .   A
C211       C212 0.018       .   A
C211       C228 0.018       .   A
C212       C213 0.018       .   A
C212       H217 0.014       .   A
C213       C214 0.018       .   A
C213       H229 0.014       .   A
C214       C215 0.017       .   A
C214       C220 0.017       .   A
C215       O219 0.018       .   A
C215       C228 0.018       .   A
C216       C225 0.018       .   A
C216       N231 0.017       .   A
C216       C235 0.018       .   A
H218       C228 0.014       .   A
O219       C222 0.018       .   A
C220       C221 0.017       .   A
C220       C222 0.017       .   A
C221       C224 0.017       .   A
C221       H230 0.014       .   A
C222       C223 0.018       .   A
C223       C225 0.018       .   A
C223       H226 0.014       .   A
C224       C225 0.018       .   A
C224       H227 0.014       .   A
N231       C232 0.017       .   A
C232       C233 0.018       .   A
C232       N239 0.017       .   A
C233       N234 0.017       .   A
C233       N240 0.017       .   A
N234       C235 0.017       .   A
C235       H236 0.014       .   A
C237       C238 0.018       .   A
C237       N239 0.017       .   A
C237       H241 0.014       .   A
C238       N240 0.017       .   A
