data_pcu_v1-6c_Zn_1_Ch_1-21_fer_tobacco
_audit_creation_date              2021-02-03
_audit_creation_method            'tobacco_3.0'
_symmetry_space_group_name_H-M    'P1'
_symmetry_Int_Tables_number       1
_symmetry_cell_setting            triclinic
loop_
_symmetry_equiv_pos_as_xyz
  x,y,z
_cell_length_a                    34.38542878333715
_cell_length_b                    34.38542878333715
_cell_length_c                    34.38542878333715
_cell_angle_alpha                 90.0
_cell_angle_beta                  90.0
_cell_angle_gamma                 90.0
loop_
_atom_site_label
_atom_site_type_symbol
_atom_site_fract_x
_atom_site_fract_y
_atom_site_fract_z
_atom_site_charge
Zn1       Zn    0.0326068349   -0.0326068349   -0.0326068349          1.4972
Zn2       Zn   -0.0326068349    0.0326068349   -0.0326068349          1.4936
Zn3       Zn   -0.0326068349   -0.0326068349    0.0326068349          1.4911
Zn4       Zn    0.0326068349    0.0326068349    0.0326068349          1.4948
O5         O    0.0000000000    0.0000000000    0.0000000000         -2.1897
O6         O    0.0239636389   -0.0239636389   -0.0871473792          -1.096
O7         O   -0.0871473792    0.0239636389   -0.0239636389         -1.0942
O8         O   -0.0239636389   -0.0871473792    0.0239636389         -1.0894
O9         O   -0.0239636389    0.0239636389   -0.0871473792         -1.0961
O10        O    0.0239636389   -0.0871473792   -0.0239636389         -1.0921
O11        O   -0.0871473792   -0.0239636389    0.0239636389          -1.098
O12        O    0.0239636389    0.0239636389    0.0871473792         -1.0919
O13        O   -0.0239636389    0.0871473792   -0.0239636389         -1.0994
O14        O   -0.0239636389   -0.0239636389    0.0871473792         -1.0933
O15        O    0.0239636389    0.0871473792    0.0239636389          -1.098
O16        O    0.0871473792    0.0239636389    0.0239636389         -1.0971
O17        O    0.0871473792   -0.0239636389   -0.0239636389          -1.095
C18        C    0.0000000000   -0.0000000000   -0.1041952980          0.4229
C19        C   -0.1041952980    0.0000000000    0.0000000000          0.4278
C20        C    0.0000000000   -0.1041952980   -0.0000000000          0.4174
C21        C   -0.0000000000    0.0000000000    0.1041952980          0.4212
C22        C   -0.0000000000    0.1041952980    0.0000000000          0.4325
C23        C    0.1041952980   -0.0000000000   -0.0000000000           0.423
Zn24      Zn    1.0326068349    0.0326068349    0.5326068349          1.4972
Zn25      Zn    0.9673931651    0.0326068349    0.4673931651          1.4936
Zn26      Zn    1.0326068349   -0.0326068349    0.4673931651          1.4911
Zn27      Zn    0.9673931651   -0.0326068349    0.5326068349          1.4948
O28        O    1.0000000000    0.0000000000    0.5000000000         -2.1897
O29        O    1.0239636389    0.0871473792    0.5239636389          -1.096
O30        O    0.9760363611    0.0239636389    0.4128526208         -1.0942
O31        O    1.0871473792   -0.0239636389    0.4760363611         -1.0894
O32        O    0.9760363611    0.0871473792    0.4760363611         -1.0961
O33        O    1.0871473792    0.0239636389    0.5239636389         -1.0921
O34        O    1.0239636389   -0.0239636389    0.4128526208          -1.098
O35        O    0.9760363611   -0.0871473792    0.5239636389         -1.0919
O36        O    0.9128526208    0.0239636389    0.4760363611         -1.0994
O37        O    1.0239636389   -0.0871473792    0.4760363611         -1.0933
O38        O    0.9128526208   -0.0239636389    0.5239636389          -1.098
O39        O    0.9760363611   -0.0239636389    0.5871473792         -1.0971
O40        O    1.0239636389    0.0239636389    0.5871473792          -1.095
C41        C    1.0000000000    0.1041952980    0.5000000000          0.4229
C42        C    1.0000000000    0.0000000000    0.3958047020          0.4278
C43        C    1.1041952980    0.0000000000    0.5000000000          0.4174
C44        C    1.0000000000   -0.1041952980    0.5000000000          0.4212
C45        C    0.8958047020    0.0000000000    0.5000000000          0.4325
C46        C    1.0000000000    0.0000000000    0.6041952980           0.423
Zn47      Zn    0.9673931651    0.5326068349    0.0326068349          1.4972
Zn48      Zn    1.0326068349    0.4673931651    0.0326068349          1.4936
Zn49      Zn    0.9673931651    0.4673931651   -0.0326068349          1.4911
Zn50      Zn    1.0326068349    0.5326068349   -0.0326068349          1.4948
O51        O    1.0000000000    0.5000000000    0.0000000000         -2.1897
O52        O    0.9760363611    0.5239636389    0.0871473792          -1.096
O53        O    1.0239636389    0.4128526208    0.0239636389         -1.0942
O54        O    0.9128526208    0.4760363611   -0.0239636389         -1.0894
O55        O    1.0239636389    0.4760363611    0.0871473792         -1.0961
O56        O    0.9128526208    0.5239636389    0.0239636389         -1.0921
O57        O    0.9760363611    0.4128526208   -0.0239636389          -1.098
O58        O    1.0239636389    0.5239636389   -0.0871473792         -1.0919
O59        O    1.0871473792    0.4760363611    0.0239636389         -1.0994
O60        O    0.9760363611    0.4760363611   -0.0871473792         -1.0933
O61        O    1.0871473792    0.5239636389   -0.0239636389          -1.098
O62        O    1.0239636389    0.5871473792   -0.0239636389         -1.0971
O63        O    0.9760363611    0.5871473792    0.0239636389          -1.095
C64        C    1.0000000000    0.5000000000    0.1041952980          0.4229
C65        C    1.0000000000    0.3958047020    0.0000000000          0.4278
C66        C    0.8958047020    0.5000000000    0.0000000000          0.4174
C67        C    1.0000000000    0.5000000000   -0.1041952980          0.4212
C68        C    1.1041952980    0.5000000000    0.0000000000          0.4325
C69        C    1.0000000000    0.6041952980    0.0000000000           0.423
Zn70      Zn    1.0326068349    0.5326068349    0.5326068349          1.4972
Zn71      Zn    1.0326068349    0.4673931651    0.4673931651          1.4936
Zn72      Zn    0.9673931651    0.4673931651    0.5326068349          1.4911
Zn73      Zn    0.9673931651    0.5326068349    0.4673931651          1.4948
O74        O    1.0000000000    0.5000000000    0.5000000000         -2.1897
O75        O    1.0871473792    0.5239636389    0.5239636389          -1.096
O76        O    1.0239636389    0.4128526208    0.4760363611         -1.0942
O77        O    0.9760363611    0.4760363611    0.5871473792         -1.0894
O78        O    1.0871473792    0.4760363611    0.4760363611         -1.0961
O79        O    1.0239636389    0.5239636389    0.5871473792         -1.0921
O80        O    0.9760363611    0.4128526208    0.5239636389          -1.098
O81        O    0.9128526208    0.5239636389    0.4760363611         -1.0919
O82        O    1.0239636389    0.4760363611    0.4128526208         -1.0994
O83        O    0.9128526208    0.4760363611    0.5239636389         -1.0933
O84        O    0.9760363611    0.5239636389    0.4128526208          -1.098
O85        O    0.9760363611    0.5871473792    0.4760363611         -1.0971
O86        O    1.0239636389    0.5871473792    0.5239636389          -1.095
C87        C    1.1041952980    0.5000000000    0.5000000000          0.4229
C88        C    1.0000000000    0.3958047020    0.5000000000          0.4278
C89        C    1.0000000000    0.5000000000    0.6041952980          0.4174
C90        C    0.8958047020    0.5000000000    0.5000000000          0.4212
C91        C    1.0000000000    0.5000000000    0.3958047020          0.4325
C92        C    1.0000000000    0.6041952980    0.5000000000           0.423
Zn93      Zn    0.5326068349    0.9673931651    0.0326068349          1.4972
Zn94      Zn    0.4673931651    1.0326068349    0.0326068349          1.4936
Zn95      Zn    0.5326068349    1.0326068349   -0.0326068349          1.4911
Zn96      Zn    0.4673931651    0.9673931651   -0.0326068349          1.4948
O97        O    0.5000000000    1.0000000000    0.0000000000         -2.1897
O98        O    0.5239636389    0.9760363611    0.0871473792          -1.096
O99        O    0.4760363611    1.0871473792    0.0239636389         -1.0942
O100       O    0.5871473792    1.0239636389   -0.0239636389         -1.0894
O101       O    0.4760363611    1.0239636389    0.0871473792         -1.0961
O102       O    0.5871473792    0.9760363611    0.0239636389         -1.0921
O103       O    0.5239636389    1.0871473792   -0.0239636389          -1.098
O104       O    0.4760363611    0.9760363611   -0.0871473792         -1.0919
O105       O    0.4128526208    1.0239636389    0.0239636389         -1.0994
O106       O    0.5239636389    1.0239636389   -0.0871473792         -1.0933
O107       O    0.4128526208    0.9760363611   -0.0239636389          -1.098
O108       O    0.4760363611    0.9128526208   -0.0239636389         -1.0971
O109       O    0.5239636389    0.9128526208    0.0239636389          -1.095
C110       C    0.5000000000    1.0000000000    0.1041952980          0.4229
C111       C    0.5000000000    1.1041952980    0.0000000000          0.4278
C112       C    0.6041952980    1.0000000000    0.0000000000          0.4174
C113       C    0.5000000000    1.0000000000   -0.1041952980          0.4212
C114       C    0.3958047020    1.0000000000    0.0000000000          0.4325
C115       C    0.5000000000    0.8958047020    0.0000000000           0.423
Zn116     Zn    0.4673931651    1.0326068349    0.5326068349          1.4972
Zn117     Zn    0.4673931651    0.9673931651    0.4673931651          1.4936
Zn118     Zn    0.5326068349    1.0326068349    0.4673931651          1.4911
Zn119     Zn    0.5326068349    0.9673931651    0.5326068349          1.4948
O120       O    0.5000000000    1.0000000000    0.5000000000         -2.1897
O121       O    0.4128526208    1.0239636389    0.5239636389          -1.096
O122       O    0.4760363611    0.9760363611    0.4128526208         -1.0942
O123       O    0.5239636389    1.0871473792    0.4760363611         -1.0894
O124       O    0.4128526208    0.9760363611    0.4760363611         -1.0961
O125       O    0.4760363611    1.0871473792    0.5239636389         -1.0921
O126       O    0.5239636389    1.0239636389    0.4128526208 -1.1012000000000002
O127       O    0.5871473792    0.9760363611    0.5239636389         -1.0919
O128       O    0.4760363611    0.9128526208    0.4760363611         -1.0994
O129       O    0.5871473792    1.0239636389    0.4760363611         -1.0933
O130       O    0.5239636389    0.9128526208    0.5239636389          -1.098
O131       O    0.5239636389    0.9760363611    0.5871473792         -1.0971
O132       O    0.4760363611    1.0239636389    0.5871473792          -1.095
C133       C    0.3958047020    1.0000000000    0.5000000000          0.4229
C134       C    0.5000000000    1.0000000000    0.3958047020          0.4278
C135       C    0.5000000000    1.1041952980    0.5000000000          0.4174
C136       C    0.6041952980    1.0000000000    0.5000000000          0.4212
C137       C    0.5000000000    0.8958047020    0.5000000000          0.4325
C138       C    0.5000000000    1.0000000000    0.6041952980           0.423
Zn139     Zn    0.4673931651    0.5326068349   -0.0326068349          1.4972
Zn140     Zn    0.4673931651    0.4673931651    0.0326068349          1.4936
Zn141     Zn    0.5326068349    0.4673931651   -0.0326068349          1.4911
Zn142     Zn    0.5326068349    0.5326068349    0.0326068349          1.4948
O143       O    0.5000000000    0.5000000000    0.0000000000         -2.1897
O144       O    0.4128526208    0.5239636389   -0.0239636389          -1.096
O145       O    0.4760363611    0.4128526208    0.0239636389         -1.0942
O146       O    0.5239636389    0.4760363611   -0.0871473792         -1.0894
O147       O    0.4128526208    0.4760363611    0.0239636389         -1.0961
O148       O    0.4760363611    0.5239636389   -0.0871473792         -1.0921
O149       O    0.5239636389    0.4128526208   -0.0239636389          -1.098
O150       O    0.5871473792    0.5239636389    0.0239636389         -1.0919
O151       O    0.4760363611    0.4760363611    0.0871473792         -1.0994
O152       O    0.5871473792    0.4760363611   -0.0239636389         -1.0933
O153       O    0.5239636389    0.5239636389    0.0871473792          -1.098
O154       O    0.5239636389    0.5871473792    0.0239636389         -1.0971
O155       O    0.4760363611    0.5871473792   -0.0239636389          -1.095
C156       C    0.3958047020    0.5000000000    0.0000000000          0.4229
C157       C    0.5000000000    0.3958047020    0.0000000000          0.4278
C158       C    0.5000000000    0.5000000000   -0.1041952980          0.4174
C159       C    0.6041952980    0.5000000000    0.0000000000          0.4212
C160       C    0.5000000000    0.5000000000    0.1041952980          0.4325
C161       C    0.5000000000    0.6041952980    0.0000000000           0.423
Zn162     Zn    0.5326068349    0.4673931651    0.4673931651          1.4972
Zn163     Zn    0.4673931651    0.5326068349    0.4673931651          1.4936
Zn164     Zn    0.4673931651    0.4673931651    0.5326068349          1.4911
Zn165     Zn    0.5326068349    0.5326068349    0.5326068349          1.4948
O166       O    0.5000000000    0.5000000000    0.5000000000         -2.1897
O167       O    0.5239636389    0.4760363611    0.4128526208          -1.096
O168       O    0.4128526208    0.5239636389    0.4760363611         -1.0942
O169       O    0.4760363611    0.4128526208    0.5239636389         -1.0894
O170       O    0.4760363611    0.5239636389    0.4128526208         -1.0961
O171       O    0.5239636389    0.4128526208    0.4760363611         -1.0921
O172       O    0.4128526208    0.4760363611    0.5239636389          -1.098
O173       O    0.5239636389    0.5239636389    0.5871473792         -1.0919
O174       O    0.4760363611    0.5871473792    0.4760363611         -1.0994
O175       O    0.4760363611    0.4760363611    0.5871473792         -1.0933
O176       O    0.5239636389    0.5871473792    0.5239636389          -1.098
O177       O    0.5871473792    0.5239636389    0.5239636389         -1.0971
O178       O    0.5871473792    0.4760363611    0.4760363611          -1.095
C179       C    0.5000000000    0.5000000000    0.3958047020          0.4229
C180       C    0.3958047020    0.5000000000    0.5000000000          0.4278
C181       C    0.5000000000    0.3958047020    0.5000000000          0.4174
C182       C    0.5000000000    0.5000000000    0.6041952980          0.4212
C183       C    0.5000000000    0.6041952980    0.5000000000          0.4325
C184       C    0.6041952980    0.5000000000    0.5000000000           0.423
C691       C    0.5000000000    0.5000000000   -0.1489817106         -0.3481
C692       C    0.5334923090    0.5082900767   -0.1686361771           0.644
C693       C    0.5337420282    0.5082942352   -0.2087690229          0.6435
C694       C    0.5010347450    0.5002264713   -0.2303984759         -0.3493
C695       C    0.4682912994    0.4932055503   -0.2093854648         -0.3426
C696       C    0.4684698528    0.4933011785   -0.1705647128         -0.3422
C697       C    0.5001682387    0.4990652479   -0.2705574388         -0.3487
C698       C    0.5611736352    0.5180533870   -0.2242598272          0.6343
C699       C    0.5587318376    0.5157124040   -0.1487104151          0.6373
H700       H    0.4412991716    0.4860012221   -0.1560753037         -0.3353
Cl701     Cl    0.4240234965    0.4773090311   -0.2277657247         -0.3281
N702       N    0.5874601264    0.5252440817   -0.1348544855          0.6287
N703       N    0.5889616301    0.5312523049   -0.2370253267          0.6219
C704       C    0.5300159385    0.4853642403   -0.2922684118         -0.3362
C705       C    0.5301039348    0.4857918014   -0.3310695607         -0.3371
C706       C    0.5000000000    0.5000000000   -0.3510182894         -0.3506
C707       C    0.4696068019    0.5129587805   -0.3304329779          0.6376
C708       C    0.4697967277    0.5124159416   -0.2915174901          0.6386
H709       H    0.5554179211    0.4743221589   -0.3461430955         -0.3265
H710       H    0.5552950796    0.4720532094   -0.2788407227         -0.3236
H711       H    0.4449680650    0.5259377003   -0.2775243310          0.6261
H712       H    0.4443498317    0.5251480614   -0.3451371986           0.626
C669       C    0.5000000000    0.5000000000    0.3510182894         -0.3481
C670       C    0.4665076910    0.4917099233    0.3313638229           0.644
C671       C    0.4662579718    0.4917057648    0.2912309771          0.6435
C672       C    0.4989652550    0.4997735287    0.2696015241         -0.3493
C673       C    0.5317087006    0.5067944497    0.2906145352         -0.3426
C674       C    0.5315301472    0.5066988215    0.3294352872         -0.3422
C675       C    0.4998317613    0.5009347521    0.2294425612         -0.3487
C676       C    0.4388263648    0.4819466130    0.2757401728          0.6343
C677       C    0.4412681624    0.4842875960    0.3512895849          0.6373
H678       H    0.5587008284    0.5139987779    0.3439246963         -0.3353
Cl679     Cl    0.5759765035    0.5226909689    0.2722342753         -0.3281
N680       N    0.4125398736    0.4747559183    0.3651455145          0.6287
N681       N    0.4110383699    0.4687476951    0.2629746733          0.6219
C682       C    0.4699840615    0.5146357597    0.2077315882         -0.3362
C683       C    0.4698960652    0.5142081986    0.1689304393         -0.3371
C684       C    0.5000000000    0.5000000000    0.1489817106         -0.3506
C685       C    0.5303931981    0.4870412195    0.1695670221          0.6376
C686       C    0.5302032723    0.4875840584    0.2084825099          0.6386
H687       H    0.4445820789    0.5256778411    0.1538569045         -0.3265
H688       H    0.4447049204    0.5279467906    0.2211592773         -0.3236
H689       H    0.5550319350    0.4740622997    0.2224756690          0.6261
H690       H    0.5556501683    0.4748519386    0.1548628014           0.626
C647       C    0.5000000000    0.6489817106    0.5000000000         -0.3481
C648       C    0.5045620578    0.6686361771    0.4657998865           0.644
C649       C    0.5045387688    0.7087690229    0.4655512209          0.6435
C650       C    0.5001114734    0.7303984759    0.4989466434         -0.3493
C651       C    0.4967286612    0.7093854648    0.5322630529         -0.3426
C652       C    0.4968041036    0.6705647128    0.5320750781         -0.3422
C653       C    0.4990524263    0.7705574388    0.4999354264         -0.3487
C654       C    0.5112265596    0.7242598272    0.4372138328          0.6343
C655       C    0.5091678746    0.6487104151    0.4398979329          0.6373
H656       H    0.4925319827    0.6560753037    0.5598830674         -0.3353
Cl657     Cl    0.4857894491    0.7277657247    0.5780087777         -0.3281
N658       N    0.5154871748    0.6348544855    0.4102966846          0.6287
N659       N    0.5212941778    0.7370253267    0.4081444820          0.6219
C660       C    0.4821566200    0.7922684118    0.4717727823         -0.3362
C661       C    0.4825719323    0.8310695607    0.4716383666         -0.3371
C662       C    0.5000000000    0.8510182894    0.5000000000         -0.3506
C663       C    0.5162179706    0.8304329779    0.5287863494          0.6376
C664       C    0.5156575583    0.7915174901    0.5286571829          0.6386
H665       H    0.4683918561    0.8461430955    0.4477369850         -0.3265
H666       H    0.4661501181    0.7788407227    0.4481082432         -0.3236
H667       H    0.5318240454    0.7775243310    0.5518508274          0.6261
H668       H    0.5311070719    0.8451371986    0.5525520343           0.626
C625       C    0.5000000000    1.1489817106    0.5000000000         -0.3481
C626       C    0.4665076910    1.1686361771    0.4917099233           0.644
C627       C    0.4662579718    1.2087690229    0.4917057648          0.6435
C628       C    0.4989652550    1.2303984759    0.4997735287         -0.3493
C629       C    0.5317087006    1.2093854648    0.5067944497         -0.3426
C630       C    0.5315301472    1.1705647128    0.5066988215         -0.3422
C631       C    0.4998317613    1.2705574388    0.5009347521         -0.3487
C632       C    0.4388263648    1.2242598272    0.4819466130          0.6343
C633       C    0.4412681624    1.1487104151    0.4842875960          0.6373
H634       H    0.5587008284    1.1560753037    0.5139987779         -0.3353
Cl635     Cl    0.5759765035    1.2277657247    0.5226909689         -0.3281
N636       N    0.4125398736    1.1348544855    0.4747559183          0.6287
N637       N    0.4110383699    1.2370253267    0.4687476951          0.6219
C638       C    0.4699840615    1.2922684118    0.5146357597         -0.3362
C639       C    0.4698960652    1.3310695607    0.5142081986         -0.3371
C640       C    0.5000000000    1.3510182894    0.5000000000         -0.3506
C641       C    0.5303931981    1.3304329779    0.4870412195          0.6376
C642       C    0.5302032723    1.2915174901    0.4875840584          0.6386
H643       H    0.4445820789    1.3461430955    0.5256778411         -0.3265
H644       H    0.4447049204    1.2788407227    0.5279467906         -0.3236
H645       H    0.5550319350    1.2775243310    0.4740622997          0.6261
H646       H    0.5556501683    1.3451371986    0.4748519386           0.626
C603       C    0.5000000000    0.8510182894    0.0000000000         -0.3481
C604       C    0.5292591407    0.8313638229   -0.0182855905           0.644
C605       C    0.5294952095    0.7912309771   -0.0183671288          0.6435
C606       C    0.5009131734    0.7696015241   -0.0005367501         -0.3493
C607       C    0.4719715192    0.7906145352    0.0163098285         -0.3426
C608       C    0.4721115253    0.8294352872    0.0161634578         -0.3422
C609       C    0.5004503325    0.7294425612    0.0008362215         -0.3487
C610       C    0.5525371584    0.7757401728   -0.0361660809          0.6343
C611       C    0.5509435278    0.8512895849   -0.0331823051          0.6373
H612       H    0.4485535374    0.8439246963    0.0315438508         -0.3353
Cl613     Cl    0.4348334148    0.7722342753    0.0451732811         -0.3281
N614       N    0.5752886610    0.8651455145   -0.0511679089          0.6287
N615       N    0.5748491510    0.7629746733   -0.0573452943          0.6219
C616       C    0.5330776812    0.7077315882    0.0045857426         -0.3362
C617       C    0.5330284829    0.6689304393    0.0041520015         -0.3371
C618       C    0.5000000000    0.6489817106    0.0000000000         -0.3506
C619       C    0.4670847531    0.6695670221   -0.0028745444          0.6376
C620       C    0.4674339352    0.7084825099   -0.0024175786          0.6386
H621       H    0.5606532216    0.6538569045    0.0071891734         -0.3265
H622       H    0.5612414032    0.7211592773    0.0093840000         -0.3236
H623       H    0.4396329262    0.7224756690   -0.0075560951          0.6261
H624       H    0.4392906231    0.6548628014   -0.0066134548           0.626
C581       C    0.5000000000    1.1489817106    0.0000000000         -0.3481
C582       C    0.5344355351    1.1686361771   -0.0021573265           0.644
C583       C    0.5346749627    1.2087690229   -0.0022283996          0.6435
C584       C    0.5010549761    1.2303984759   -0.0000949309         -0.3493
C585       C    0.4677150692    1.2093854648    0.0030478659         -0.3426
C586       C    0.4679141063    1.1705647128    0.0030854200         -0.3422
C587       C    0.4998795752    1.2705574388   -0.0009421059         -0.3487
C588       C    0.5637713499    1.2242598272   -0.0011633372          0.6343
C589       C    0.5607389506    1.1487104151   -0.0026623807          0.6373
H590       H    0.4398055612    1.1560753037    0.0042874907         -0.3353
Cl591     Cl    0.4207163500    1.2277657247    0.0011882733         -0.3281
N592       N    0.5910037366    1.1348544855   -0.0022039254          0.6287
N593       N    0.5942412858    1.2370253267    0.0030754244          0.6219
C594       C    0.5242307359    1.2922684118   -0.0229789787         -0.3362
C595       C    0.5244431452    1.3310695607   -0.0225976205         -0.3371
C596       C    0.5000000000    1.3510182894    0.0000000000         -0.3506
C597       C    0.4749055166    1.3304329779    0.0214928683          0.6376
C598       C    0.4749235445    1.2915174901    0.0209180458          0.6386
H599       H    0.5451406386    1.3461430955   -0.0411438969         -0.3265
H600       H    0.5443416669    1.2788407227   -0.0432710701         -0.3236
H601       H    0.4553055949    1.2775243310    0.0412757595          0.6261
H602       H    0.4544786518    1.3451371986    0.0407083908           0.626
C559       C    0.5000000000    1.0000000000   -0.1489817106         -0.3481
C560       C    0.5082900767    0.9665076910   -0.1686361771           0.644
C561       C    0.5082942352    0.9662579718   -0.2087690229          0.6435
C562       C    0.5002264713    0.9989652550   -0.2303984759         -0.3493
C563       C    0.4932055503    1.0317087006   -0.2093854648         -0.3426
C564       C    0.4933011785    1.0315301472   -0.1705647128         -0.3422
C565       C    0.4990652479    0.9998317613   -0.2705574388         -0.3487
C566       C    0.5180533870    0.9388263648   -0.2242598272          0.6343
C567       C    0.5157124040    0.9412681624   -0.1487104151          0.6373
H568       H    0.4860012221    1.0587008284   -0.1560753037         -0.3353
Cl569     Cl    0.4773090311    1.0759765035   -0.2277657247         -0.3281
N570       N    0.5252440817    0.9125398736   -0.1348544855          0.6287
N571       N    0.5312523049    0.9110383699   -0.2370253267          0.6219
C572       C    0.4853642403    0.9699840615   -0.2922684118         -0.3362
C573       C    0.4857918014    0.9698960652   -0.3310695607         -0.3371
C574       C    0.5000000000    1.0000000000   -0.3510182894         -0.3506
C575       C    0.5129587805    1.0303931981   -0.3304329779          0.6376
C576       C    0.5124159416    1.0302032723   -0.2915174901          0.6386
H577       H    0.4743221589    0.9445820789   -0.3461430955         -0.3265
H578       H    0.4720532094    0.9447049204   -0.2788407227         -0.3236
H579       H    0.5259377003    1.0550319350   -0.2775243310          0.6261
H580       H    0.5251480614    1.0556501683   -0.3451371986           0.626
C537       C    0.5000000000    1.0000000000    0.3510182894         -0.3481
C538       C    0.5334923090    1.0082900767    0.3313638229           0.644
C539       C    0.5337420282    1.0082942352    0.2912309771          0.6435
C540       C    0.5010347450    1.0002264713    0.2696015241         -0.3493
C541       C    0.4682912994    0.9932055503    0.2906145352         -0.3426
C542       C    0.4684698528    0.9933011785    0.3294352872         -0.3422
C543       C    0.5001682387    0.9990652479    0.2294425612         -0.3487
C544       C    0.5611736352    1.0180533870    0.2757401728          0.6343
C545       C    0.5587318376    1.0157124040    0.3512895849          0.6373
H546       H    0.4412991716    0.9860012221    0.3439246963         -0.3353
Cl547     Cl    0.4240234965    0.9773090311    0.2722342753         -0.3281
N548       N    0.5874601264    1.0252440817    0.3651455145          0.6287
N549       N    0.5889616301    1.0312523049    0.2629746733          0.6219
C550       C    0.5300159385    0.9853642403    0.2077315882         -0.3362
C551       C    0.5301039348    0.9857918014    0.1689304393         -0.3371
C552       C    0.5000000000    1.0000000000    0.1489817106         -0.3506
C553       C    0.4696068019    1.0129587805    0.1695670221          0.6376
C554       C    0.4697967277    1.0124159416    0.2084825099          0.6386
H555       H    0.5554179211    0.9743221589    0.1538569045         -0.3265
H556       H    0.5552950796    0.9720532094    0.2211592773         -0.3236
H557       H    0.4449680650    1.0259377003    0.2224756690          0.6261
H558       H    0.4443498317    1.0251480614    0.1548628014           0.626
C515       C    0.8510182894    0.5000000000    0.5000000000         -0.3481
C516       C    0.8313638229    0.4664376575    0.5080018311           0.644
C517       C    0.7912309771    0.4662138696    0.5081127182          0.6435
C518       C    0.7696015241    0.4989766964    0.5002735617         -0.3493
C519       C    0.7906145352    0.5312913175    0.4914876743         -0.3426
C520       C    0.8294352872    0.5310887914    0.4914846350         -0.3422
C521       C    0.7294425612    0.5002794213    0.5009077386         -0.3487
C522       C    0.7757401728    0.4373624916    0.5120283403          0.6343
C523       C    0.8512895849    0.4406062147    0.5129879430          0.6373
H524       H    0.8439246963    0.5585799479    0.4855036988         -0.3353
Cl525     Cl    0.7722342753    0.5779180361    0.4853000407         -0.3281
N526       N    0.8651455145    0.4107070873    0.5177006531          0.6287
N527       N    0.7629746733    0.4066161445    0.5130511965          0.6219
C528       C    0.7077315882    0.4800458307    0.5267767279         -0.3362
C529       C    0.6689304393    0.4797714611    0.5264372088         -0.3371
C530       C    0.6489817106    0.5000000000    0.5000000000         -0.3506
C531       C    0.6695670221    0.5210588410    0.4745401944          0.6376
C532       C    0.7084825099    0.5211391664    0.4751096623          0.6386
H533       H    0.6538569045    0.4625423078    0.5482433291         -0.3265
H534       H    0.7211592773    0.4636925460    0.5502029652         -0.3236
H535       H    0.7224756690    0.5369955023    0.4517028885          0.6261
H536       H    0.6548628014    0.5379071336    0.4521208244           0.626
C493       C    1.1489817106    0.5000000000    0.5000000000         -0.3481
C494       C    1.1686361771    0.5265388704    0.4779512246           0.644
C495       C    1.2087690229    0.5267618528    0.4778387265          0.6435
C496       C    1.2303984759    0.5008328316    0.4993454941         -0.3493
C497       C    1.2093854648    0.4744153489    0.5199256586         -0.3426
C498       C    1.1705647128    0.4745344331    0.5197618141         -0.3422
C499       C    1.2705574388    0.5005585381    0.5007681802         -0.3487
C500       C    1.2242598272    0.5472051772    0.4571069974          0.6343
C501       C    1.1487104151    0.5460266255    0.4602777376          0.6373
H502       H    1.1560753037    0.4532549903    0.5381661776         -0.3353
Cl503     Cl    1.2277657247    0.4414892109    0.5535144534         -0.3281
N504       N    1.1348544855    0.5677362700    0.4391860617          0.6287
N505       N    1.2370253267    0.5664712705    0.4331236335          0.6219
C506       C    1.2922684118    0.5333938838    0.5001027013         -0.3362
C507       C    1.3310695607    0.5332868904    0.4996794942         -0.3371
C508       C    1.3510182894    0.5000000000    0.5000000000         -0.3506
C509       C    1.3304329779    0.4669968510    0.5015711895          0.6376
C510       C    1.2915174901    0.4674042300    0.5019771305          0.6386
H511       H    1.3461430955    0.5610692786    0.4989798437         -0.3265
H512       H    1.2788407227    0.5619468445    0.5010758159         -0.3236
H513       H    1.2775243310    0.4391650094    0.5006181349          0.6261
H514       H    1.3451371986    0.4389523794    0.5015982015           0.626
C471       C    0.6489817106    0.5000000000    0.0000000000         -0.3481
C472       C    0.6686361771    0.5322484003   -0.0122678773           0.644
C473       C    0.7087690229    0.5324957963   -0.0123021149          0.6435
C474       C    0.7303984759    0.5009998895   -0.0003495817         -0.3493
C475       C    0.7093854648    0.4693418628    0.0105681060         -0.3426
C476       C    0.6705647128    0.4695075834    0.0104516467         -0.3422
C477       C    0.7705574388    0.5002797176    0.0009076474         -0.3487
C478       C    0.7242598272    0.5585505795   -0.0252975901          0.6343
C479       C    0.6487104151    0.5564088566   -0.0226792701          0.6373
H480       H    0.6560753037    0.4434153087    0.0209744070         -0.3353
Cl481     Cl    0.7277657247    0.4273137168    0.0316861702         -0.3281
N482       N    0.6348544855    0.5837782889   -0.0356052760          0.6287
N483       N    0.7370253267    0.5845444064   -0.0417507071          0.6219
C484       C    0.7922684118    0.5315616380    0.0109098595         -0.3362
C485       C    0.8310695607    0.5315974398    0.0104748077         -0.3371
C486       C    0.8510182894    0.5000000000    0.0000000000         -0.3506
C487       C    0.8304329779    0.4682660538   -0.0091996274          0.6376
C488       C    0.7915174901    0.4685200460   -0.0086836489          0.6386
H489       H    0.8461430955    0.5581096795    0.0188085791         -0.3265
H490       H    0.7788407227    0.5582613091    0.0210757867         -0.3236
H491       H    0.7775243310    0.4422421585   -0.0191130822          0.6261
H492       H    0.8451371986    0.4417236450   -0.0182546616           0.626
C449       C    1.1489817106    0.5000000000    0.0000000000         -0.3481
C450       C    1.1686361771    0.4949859696    0.0341367783           0.644
C451       C    1.2087690229    0.4948952284    0.0343694648          0.6435
C452       C    1.2303984759    0.4998176503    0.0010434246         -0.3493
C453       C    1.2093854648    0.5057226072   -0.0319195553         -0.3426
C454       C    1.1705647128    0.5057434764   -0.0317180843         -0.3422
C455       C    1.2705574388    0.4990711749   -0.0001983673         -0.3487
C456       C    1.2242598272    0.4935365054    0.0634536182          0.6343
C457       C    1.1487104151    0.4922948763    0.0603070432          0.6373
H458       H    1.1560753037    0.5092793129   -0.0596292495         -0.3353
Cl459     Cl    1.2277657247    0.5077785814   -0.0789100933         -0.3281
N460       N    1.1348544855    0.4902344663    0.0905050922          0.6287
N461       N    1.2370253267    0.4952262394    0.0941705336          0.6219
C462       C    1.2922684118    0.4750852507    0.0222354962         -0.3362
C463       C    1.3310695607    0.4754476204    0.0224788890         -0.3371
C464       C    1.3510182894    0.5000000000    0.0000000000         -0.3506
C465       C    1.3304329779    0.5235056306   -0.0232198582          0.6376
C466       C    1.2915174901    0.5229313004   -0.0232497037          0.6386
H467       H    1.3461430955    0.4552440917    0.0415620762         -0.3265
H468       H    1.2788407227    0.4531907438    0.0405889450         -0.3236
H469       H    1.2775243310    0.5448501985   -0.0411064212          0.6261
H470       H    1.3451371986    0.5443535769   -0.0419776898           0.626
C427       C    1.0000000000    0.5000000000   -0.3510182894         -0.3481
C428       C    1.0334923090    0.4917099233   -0.3313638229           0.644
C429       C    1.0337420282    0.4917057648   -0.2912309771          0.6435
C430       C    1.0010347450    0.4997735287   -0.2696015241         -0.3493
C431       C    0.9682912994    0.5067944497   -0.2906145352         -0.3426
C432       C    0.9684698528    0.5066988215   -0.3294352872         -0.3422
C433       C    1.0001682387    0.5009347521   -0.2294425612         -0.3487
C434       C    1.0611736352    0.4819466130   -0.2757401728          0.6343
C435       C    1.0587318376    0.4842875960   -0.3512895849          0.6373
H436       H    0.9412991716    0.5139987779   -0.3439246963         -0.3353
Cl437     Cl    0.9240234965    0.5226909689   -0.2722342753         -0.3281
N438       N    1.0874601264    0.4747559183   -0.3651455145          0.6287
N439       N    1.0889616301    0.4687476951   -0.2629746733          0.6219
C440       C    1.0300159385    0.5146357597   -0.2077315882         -0.3362
C441       C    1.0301039348    0.5142081986   -0.1689304393         -0.3371
C442       C    1.0000000000    0.5000000000   -0.1489817106         -0.3506
C443       C    0.9696068019    0.4870412195   -0.1695670221          0.6376
C444       C    0.9697967277    0.4875840584   -0.2084825099          0.6386
H445       H    1.0554179211    0.5256778411   -0.1538569045         -0.3265
H446       H    1.0552950796    0.5279467906   -0.2211592773         -0.3236
H447       H    0.9449680650    0.4740622997   -0.2224756690          0.6261
H448       H    0.9443498317    0.4748519386   -0.1548628014           0.626
C405       C    1.0000000000    0.5000000000    0.3510182894         -0.3481
C406       C    1.0334923090    0.5082900767    0.3313638229           0.644
C407       C    1.0337420282    0.5082942352    0.2912309771          0.6435
C408       C    1.0010347450    0.5002264713    0.2696015241         -0.3493
C409       C    0.9682912994    0.4932055503    0.2906145352         -0.3426
C410       C    0.9684698528    0.4933011785    0.3294352872         -0.3422
C411       C    1.0001682387    0.4990652479    0.2294425612         -0.3487
C412       C    1.0611736352    0.5180533870    0.2757401728          0.6343
C413       C    1.0587318376    0.5157124040    0.3512895849          0.6373
H414       H    0.9412991716    0.4860012221    0.3439246963         -0.3353
Cl415     Cl    0.9240234965    0.4773090311    0.2722342753         -0.3281
N416       N    1.0874601264    0.5252440817    0.3651455145          0.6287
N417       N    1.0889616301    0.5312523049    0.2629746733          0.6219
C418       C    1.0300159385    0.4853642403    0.2077315882         -0.3362
C419       C    1.0301039348    0.4857918014    0.1689304393         -0.3371
C420       C    1.0000000000    0.5000000000    0.1489817106         -0.3506
C421       C    0.9696068019    0.5129587805    0.1695670221          0.6376
C422       C    0.9697967277    0.5124159416    0.2084825099          0.6386
H423       H    1.0554179211    0.4743221589    0.1538569045         -0.3265
H424       H    1.0552950796    0.4720532094    0.2211592773         -0.3236
H425       H    0.9449680650    0.5259377003    0.2224756690          0.6261
H426       H    0.9443498317    0.5251480614    0.1548628014           0.626
C383       C    1.0000000000   -0.1489817106    0.5000000000         -0.3481
C384       C    1.0334923090   -0.1686361771    0.4917099233           0.644
C385       C    1.0337420282   -0.2087690229    0.4917057648          0.6435
C386       C    1.0010347450   -0.2303984759    0.4997735287         -0.3493
C387       C    0.9682912994   -0.2093854648    0.5067944497         -0.3426
C388       C    0.9684698528   -0.1705647128    0.5066988215         -0.3422
C389       C    1.0001682387   -0.2705574388    0.5009347521         -0.3487
C390       C    1.0611736352   -0.2242598272    0.4819466130          0.6343
C391       C    1.0587318376   -0.1487104151    0.4842875960          0.6373
H392       H    0.9412991716   -0.1560753037    0.5139987779         -0.3353
Cl393     Cl    0.9240234965   -0.2277657247    0.5226909689         -0.3281
N394       N    1.0874601264   -0.1348544855    0.4747559183          0.6287
N395       N    1.0889616301   -0.2370253267    0.4687476951          0.6219
C396       C    1.0300159385   -0.2922684118    0.5146357597         -0.3362
C397       C    1.0301039348   -0.3310695607    0.5142081986         -0.3371
C398       C    1.0000000000   -0.3510182894    0.5000000000         -0.3506
C399       C    0.9696068019   -0.3304329779    0.4870412195          0.6376
C400       C    0.9697967277   -0.2915174901    0.4875840584          0.6386
H401       H    1.0554179211   -0.3461430955    0.5256778411         -0.3265
H402       H    1.0552950796   -0.2788407227    0.5279467906         -0.3236
H403       H    0.9449680650   -0.2775243310    0.4740622997          0.6261
H404       H    0.9443498317   -0.3451371986    0.4748519386           0.626
C361       C    1.0000000000    0.3510182894    0.5000000000         -0.3481
C362       C    1.0334923090    0.3313638229    0.4917099233           0.644
C363       C    1.0337420282    0.2912309771    0.4917057648          0.6435
C364       C    1.0010347450    0.2696015241    0.4997735287         -0.3493
C365       C    0.9682912994    0.2906145352    0.5067944497         -0.3426
C366       C    0.9684698528    0.3294352872    0.5066988215         -0.3422
C367       C    1.0001682387    0.2294425612    0.5009347521         -0.3487
C368       C    1.0611736352    0.2757401728    0.4819466130          0.6343
C369       C    1.0587318376    0.3512895849    0.4842875960          0.6373
H370       H    0.9412991716    0.3439246963    0.5139987779         -0.3353
Cl371     Cl    0.9240234965    0.2722342753    0.5226909689         -0.3281
N372       N    1.0874601264    0.3651455145    0.4747559183          0.6287
N373       N    1.0889616301    0.2629746733    0.4687476951          0.6219
C374       C    1.0300159385    0.2077315882    0.5146357597         -0.3362
C375       C    1.0301039348    0.1689304393    0.5142081986         -0.3371
C376       C    1.0000000000    0.1489817106    0.5000000000         -0.3506
C377       C    0.9696068019    0.1695670221    0.4870412195          0.6376
C378       C    0.9697967277    0.2084825099    0.4875840584          0.6386
H379       H    1.0554179211    0.1538569045    0.5256778411         -0.3265
H380       H    1.0552950796    0.2211592773    0.5279467906         -0.3236
H381       H    0.9449680650    0.2224756690    0.4740622997          0.6261
H382       H    0.9443498317    0.1548628014    0.4748519386           0.626
C339       C    0.6489817106   -0.0000000000    0.5000000000         -0.3481
C340       C    0.6686361771    0.0243893397    0.5244053323           0.644
C341       C    0.7087690229    0.0245218100    0.5246170599          0.6435
C342       C    0.7303984759    0.0007281141    0.5007693089         -0.3493
C343       C    0.7093854648   -0.0221876711    0.4763501904         -0.3426
C344       C    0.6705647128   -0.0220135976    0.4764537495         -0.3422
C345       C    0.7705574388   -0.0007137296    0.5006266225         -0.3487
C346       C    0.7242598272    0.0470407280    0.5430732903          0.6343
C347       C    0.6487104151    0.0437752795    0.5421904408          0.6373
H348       H    0.6560753037   -0.0422916214    0.4569515181         -0.3353
Cl349     Cl    0.7277657247   -0.0586540880    0.4466426470         -0.3281
N350       N    0.6348544855    0.0667687416    0.5618746516          0.6287
N351       N    0.7370253267    0.0726896376    0.5600590940          0.6219
C352       C    0.7922684118    0.0029597441    0.5332626208         -0.3362
C353       C    0.8310695607    0.0033713577    0.5331172726         -0.3371
C354       C    0.8510182894   -0.0000000000    0.5000000000         -0.3506
C355       C    0.8304329779   -0.0045907552    0.4672799534          0.6376
C356       C    0.7915174901   -0.0049576320    0.4677228386          0.6386
H357       H    0.8461430955    0.0066155341    0.5607184668         -0.3265
H358       H    0.7788407227    0.0046088590    0.5617845235         -0.3236
H359       H    0.7775243310   -0.0061937235    0.4394779713          0.6261
H360       H    0.8451371986   -0.0071891582    0.4393561031           0.626
C317       C    1.1489817106   -0.0000000000    0.5000000000         -0.3481
C318       C    1.1686361771   -0.0205285358    0.4722684412           0.644
C319       C    1.2087690229   -0.0206283748    0.4720395107          0.6435
C320       C    1.2303984759   -0.0006068570    0.4991318347         -0.3493
C321       C    1.2093854648    0.0184621662    0.5266599824         -0.3426
C322       C    1.1705647128    0.0183052450    0.5265319128         -0.3422
C323       C    1.2705574388    0.0007982430    0.4994853410         -0.3487
C324       C    1.2242598272   -0.0401831624    0.4504676683          0.6343
C325       C    1.1487104151   -0.0370833706    0.4518218720          0.6373
H326       H    1.1560753037    0.0354895102    0.5488082749         -0.3353
Cl327     Cl    1.2277657247    0.0501550614    0.5614148107         -0.3281
N328       N    1.1348544855   -0.0569266510    0.4289655452          0.6287
N329       N    1.2370253267   -0.0630503880    0.4298891822          0.6219
C330       C    1.2922684118    0.0019719524    0.4666642320         -0.3362
C331       C    1.3310695607    0.0015434194    0.4667473662         -0.3371
C332       C    1.3510182894   -0.0000000000    0.5000000000         -0.3506
C333       C    1.3304329779   -0.0002788129    0.5330393515          0.6376
C334       C    1.2915174901    0.0001492969    0.5326553361          0.6386
H335       H    1.3461430955    0.0024001428    0.4389693780         -0.3265
H336       H    1.2788407227    0.0045419550    0.4382105222         -0.3236
H337       H    1.2775243310   -0.0027884182    0.5607741960          0.6261
H338       H    1.3451371986   -0.0018217916    0.5610413573           0.626
C295       C    0.0000000000   -0.3510182894    0.0000000000         -0.3481
C296       C    0.0188553540   -0.3313638229    0.0288952550           0.644
C297       C    0.0190352377   -0.2912309771    0.0290685144          0.6435
C298       C    0.0006027471   -0.2696015241    0.0008710237         -0.3493
C299       C   -0.0185697656   -0.2906145352   -0.0265851471         -0.3426
C300       C   -0.0185043024   -0.3294352872   -0.0263934686         -0.3422
C301       C    0.0007602569   -0.2294425612   -0.0005692760         -0.3487
C302       C    0.0324546393   -0.2757401728    0.0549075114          0.6343
C303       C    0.0322636798   -0.3512895849    0.0515302179          0.6373
H304       H   -0.0334090539   -0.3439246963   -0.0502552301         -0.3353
Cl305     Cl   -0.0401246907   -0.2722342753   -0.0683909230         -0.3281
N306       N    0.0467869103   -0.3651455145    0.0780866339          0.6287
N307       N    0.0437901514   -0.2629746733    0.0835062922          0.6219
C308       C    0.0319387108   -0.2077315882    0.0097509372         -0.3362
C309       C    0.0317116576   -0.1689304393    0.0101237625         -0.3371
C310       C    0.0000000000   -0.1489817106    0.0000000000         -0.3506
C311       C   -0.0310716659   -0.1695670221   -0.0112351263          0.6376
C312       C   -0.0305626815   -0.2084825099   -0.0115028589          0.6386
H313       H    0.0580518467   -0.1538569045    0.0189863264         -0.3265
H314       H    0.0595085542   -0.2211592773    0.0172424156         -0.3236
H315       H   -0.0579465514   -0.2224756690   -0.0185330881          0.6261
H316       H   -0.0578606657   -0.1548628014   -0.0195322707           0.626
C273       C   -0.0000000000    0.1489817106    0.0000000000         -0.3481
C274       C    0.0065398126    0.1686361771   -0.0338775883           0.644
C275       C    0.0065309988    0.2087690229   -0.0341271865          0.6435
C276       C    0.0001724368    0.2303984759   -0.0010451086         -0.3493
C277       C   -0.0051388166    0.2093854648    0.0320187259         -0.3426
C278       C   -0.0050525888    0.1705647128    0.0318354478         -0.3422
C279       C   -0.0009422269    0.2705574388   -0.0001194750         -0.3487
C280       C    0.0148526054    0.2242598272   -0.0620285300          0.6343
C281       C    0.0126415701    0.1487104151   -0.0594684714          0.6373
H282       H   -0.0109318659    0.1560753037    0.0593485244         -0.3353
Cl283     Cl   -0.0187152955    0.2277657247    0.0770522347         -0.3281
N284       N    0.0206686795    0.1348544855   -0.0886529360          0.6287
N285       N    0.0265908324    0.2370253267   -0.0904643898          0.6219
C286       C   -0.0161745870    0.2922684118   -0.0292154884         -0.3362
C287       C   -0.0157521719    0.3310695607   -0.0293255669         -0.3371
C288       C   -0.0000000000    0.3510182894    0.0000000000         -0.3506
C289       C    0.0145194592    0.3304329779    0.0296793158          0.6376
C290       C    0.0139674908    0.2915174901    0.0295178330          0.6386
H291       H   -0.0285207650    0.3461430955   -0.0540098460         -0.3265
H292       H   -0.0307802752    0.2788407227   -0.0537693555         -0.3236
H293       H    0.0287602315    0.2775243310    0.0536108875          0.6261
H294       H    0.0280037594    0.3451371986    0.0542692886           0.626
C251       C   -0.1489817106   -0.0000000000    0.0000000000         -0.3481
C252       C   -0.1686361771   -0.0018893798   -0.0344512754           0.644
C253       C   -0.2087690229   -0.0019585882   -0.0346912487          0.6435
C254       C   -0.2303984759   -0.0000867212   -0.0010556826         -0.3493
C255       C   -0.2093854648    0.0027966222    0.0323076639         -0.3426
C256       C   -0.1705647128    0.0028357236    0.0321089250         -0.3422
C257       C   -0.2705574388   -0.0009430142    0.0001130923         -0.3487
C258       C   -0.2242598272   -0.0006672109   -0.0637784702          0.6343
C259       C   -0.1487104151   -0.0021897987   -0.0607578240          0.6373
H260       H   -0.1560753037    0.0038190955    0.0602259707         -0.3353
Cl261     Cl   -0.2277657247    0.0005714727    0.0792904949         -0.3281
N262       N   -0.1348544855   -0.0014959210   -0.0910181278          0.6287
N263       N   -0.2370253267    0.0038084546   -0.0942145098          0.6219
C264       C   -0.2922684118   -0.0227897873   -0.0244087611         -0.3362
C265       C   -0.3310695607   -0.0224067882   -0.0246181973         -0.3371
C266       C   -0.3510182894   -0.0000000000    0.0000000000         -0.3506
C267       C   -0.3304329779    0.0212970025    0.0252609217          0.6376
C268       C   -0.2915174901    0.0207223377    0.0252384228          0.6386
H269       H   -0.3461430955   -0.0407914931   -0.0454593400         -0.3265
H270       H   -0.2788407227   -0.0429248174   -0.0446769401         -0.3236
H271       H   -0.2775243310    0.0409268232    0.0450141458          0.6261
H272       H   -0.3451371986    0.0403530387    0.0458366501           0.626
C229       C    0.3510182894   -0.0000000000    0.0000000000         -0.3481
C230       C    0.3313638229   -0.0060225089    0.0339733649           0.644
C231       C    0.2912309771   -0.0060098904    0.0342227998          0.6435
C232       C    0.2696015241   -0.0001564817    0.0010476163         -0.3493
C233       C    0.2906145352    0.0046500185   -0.0320933571         -0.3426
C234       C    0.3294352872    0.0045665952   -0.0319087856         -0.3422
C235       C    0.2294425612    0.0009439390    0.0001050946         -0.3487
C236       C    0.2757401728   -0.0139051080    0.0622477823          0.6343
C237       C    0.3512895849   -0.0117333639    0.0596543088          0.6373
H238       H    0.3439246963    0.0100256873   -0.0595083073         -0.3353
Cl239     Cl    0.2722342753    0.0175382773   -0.0773286363         -0.3281
N240       N    0.3651455145   -0.0193145543    0.0889577729          0.6287
N241       N    0.2629746733   -0.0252083989    0.0908593133          0.6219
C242       C    0.2077315882    0.0166181656    0.0289654725         -0.3362
C243       C    0.1689304393    0.0161974780    0.0290819790         -0.3371
C244       C    0.1489817106   -0.0000000000    0.0000000000         -0.3506
C245       C    0.1695670221   -0.0149703023   -0.0294544824          0.6376
C246       C    0.2084825099   -0.0144159359   -0.0293014344          0.6386
H247       H    0.1538569045    0.0293409567    0.0535687013         -0.3265
H248       H    0.2211592773    0.0315965373    0.0532937872         -0.3236
H249       H    0.2224756690   -0.0295743122   -0.0531661380          0.6261
H250       H    0.1548628014   -0.0288279670   -0.0538359968           0.626
C207       C   -0.0000000000    0.0000000000   -0.3510182894         -0.3481
C208       C    0.0099396305   -0.0330403372   -0.3313638229           0.644
C209       C    0.0100633411   -0.0332572995   -0.2912309771          0.6435
C210       C    0.0003325945   -0.0010056676   -0.2696015241         -0.3493
C211       C   -0.0103172228    0.0307434734   -0.2906145352         -0.3426
C212       C   -0.0103084820    0.0305411131   -0.3294352872         -0.3422
C213       C    0.0008899574    0.0003317251   -0.2294425612         -0.3487
C214       C    0.0156497765   -0.0618322159   -0.2757401728          0.6343
C215       C    0.0164191639   -0.0585381880   -0.3512895849          0.6373
H216       H   -0.0178776536    0.0576380303   -0.3439246963         -0.3353
Cl217     Cl   -0.0192052955    0.0769315656   -0.2722342753         -0.3281
N218       N    0.0228622557   -0.0881127382   -0.3651455145          0.6287
N219       N    0.0184585140   -0.0924670831   -0.2629746733          0.6219
C220       C    0.0278915801   -0.0183635994   -0.2077315882         -0.3362
C221       C    0.0275685875   -0.0186572447   -0.1689304393         -0.3371
C222       C    0.0000000000   -0.0000000000   -0.1489817106         -0.3506
C223       C   -0.0266411118    0.0195429692   -0.1695670221          0.6376
C224       C   -0.0260772774    0.0196562679   -0.2084825099          0.6386
H225       H    0.0503395341   -0.0345894320   -0.1538569045         -0.3265
H226       H    0.0522289798   -0.0333272051   -0.2211592773         -0.3236
H227       H   -0.0503663536    0.0341248970   -0.2224756690          0.6261
H228       H   -0.0500021274    0.0350592852   -0.1548628014           0.626
C185       C    0.0000000000    0.0000000000    0.3510182894         -0.3481
C186       C   -0.0342765737   -0.0039467244    0.3313638229           0.644
C187       C   -0.0345247806   -0.0039189704    0.2912309771          0.6435
C188       C   -0.0010551897   -0.0000925260    0.2696015241         -0.3493
C189       C    0.0323166309    0.0026910240    0.2906145352         -0.3426
C190       C    0.0321273307    0.0026189718    0.3294352872         -0.3422
C191       C   -0.0000475347    0.0009485811    0.2294425612         -0.3487
C192       C   -0.0629777762   -0.0100964413    0.2757401728          0.6343
C193       C   -0.0602571138   -0.0080863237    0.3512895849          0.6373
H194       H    0.0600076020    0.0063906764    0.3439246963         -0.3353
Cl195     Cl    0.0782515527    0.0128063911    0.2722342753         -0.3281
N196       N   -0.0899671436   -0.0138726510    0.3651455145          0.6287
N197       N   -0.0922233540   -0.0196400399    0.2629746733          0.6219
C198       C   -0.0279020031    0.0183477587    0.2077315882         -0.3362
C199       C   -0.0280438605    0.0179349291    0.1689304393         -0.3371
C200       C   -0.0000000000    0.0000000000    0.1489817106         -0.3506
C201       C    0.0284902541   -0.0167326597    0.1695670221          0.6376
C202       C    0.0283711794   -0.0161700168    0.2084825099          0.6386
H203       H   -0.0516865579    0.0325422377    0.1538569045         -0.3265
H204       H   -0.0512750742    0.0347769419    0.2211592773         -0.3236
H205       H    0.0512705570   -0.0327506971    0.2224756690          0.6261
H206       H    0.0519845350   -0.0320464405    0.1548628014           0.626
loop_
_geom_bond_atom_site_label_1
_geom_bond_atom_site_label_2
_geom_bond_distance
_geom_bond_site_symmetry_2
_ccdc_geom_bond_type
Zn1          O5 1.942       .   S
Zn1          O6 1.922       .   S
Zn1         O10 1.922       .   S
Zn1         O17 1.922       .   S
Zn2          O5 1.942       .   S
Zn2          O7 1.922       .   S
Zn2          O9 1.922       .   S
Zn2         O13 1.922       .   S
Zn3          O5 1.942       .   S
Zn3          O8 1.922       .   S
Zn3         O11 1.922       .   S
Zn3         O14 1.922       .   S
Zn4          O5 1.942       .   S
Zn4         O12 1.922       .   S
Zn4         O15 1.922       .   S
Zn4         O16 1.922       .   S
O6          C18 1.304       .   A
O7          C19 1.304       .   A
O8          C20 1.304       .   A
O9          C18 1.304       .   A
O10         C20 1.304       .   A
O11         C19 1.304       .   A
O12         C21 1.304       .   A
O13         C22 1.304       .   A
O14         C21 1.304       .   A
O15         C22 1.304       .   A
O16         C23 1.304       .   A
O17         C23 1.304       .   A
C18        C222 1.540       .   S
C19        C251 1.540       .   S
C20        C310 1.540       .   S
C21        C200 1.540       .   S
C22        C273 1.540       .   S
C23        C244 1.540       .   S
Zn24        O28 1.942       .   S
Zn24        O29 1.922       .   S
Zn24        O33 1.922       .   S
Zn24        O40 1.922       .   S
Zn25        O28 1.942       .   S
Zn25        O30 1.922       .   S
Zn25        O32 1.922       .   S
Zn25        O36 1.922       .   S
Zn26        O28 1.942       .   S
Zn26        O31 1.922       .   S
Zn26        O34 1.922       .   S
Zn26        O37 1.922       .   S
Zn27        O28 1.942       .   S
Zn27        O35 1.922       .   S
Zn27        O38 1.922       .   S
Zn27        O39 1.922       .   S
O29         C41 1.304       .   A
O30         C42 1.304       .   A
O31         C43 1.304       .   A
O32         C41 1.304       .   A
O33         C43 1.304       .   A
O34         C42 1.304       .   A
O35         C44 1.304       .   A
O36         C45 1.304       .   A
O37         C44 1.304       .   A
O38         C45 1.304       .   A
O39         C46 1.304       .   A
O40         C46 1.304       .   A
C41        C376 1.540       .   S
C42        C185 1.540   1_655   S
C43        C317 1.540       .   S
C44        C383 1.540       .   S
C45        C354 1.540       .   S
C46        C207 1.540   1_656   S
Zn47        O51 1.942       .   S
Zn47        O52 1.922       .   S
Zn47        O56 1.922       .   S
Zn47        O63 1.922       .   S
Zn48        O51 1.942       .   S
Zn48        O53 1.922       .   S
Zn48        O55 1.922       .   S
Zn48        O59 1.922       .   S
Zn49        O51 1.942       .   S
Zn49        O54 1.922       .   S
Zn49        O57 1.922       .   S
Zn49        O60 1.922       .   S
Zn50        O51 1.942       .   S
Zn50        O58 1.922       .   S
Zn50        O61 1.922       .   S
Zn50        O62 1.922       .   S
O52         C64 1.304       .   A
O53         C65 1.304       .   A
O54         C66 1.304       .   A
O55         C64 1.304       .   A
O56         C66 1.304       .   A
O57         C65 1.304       .   A
O58         C67 1.304       .   A
O59         C68 1.304       .   A
O60         C67 1.304       .   A
O61         C68 1.304       .   A
O62         C69 1.304       .   A
O63         C69 1.304       .   A
C64        C420 1.540       .   S
C65        C288 1.540   1_655   S
C66        C486 1.540       .   S
C67        C442 1.540       .   S
C68        C449 1.540       .   S
C69        C295 1.540   1_665   S
Zn70        O74 1.942       .   S
Zn70        O75 1.922       .   S
Zn70        O79 1.922       .   S
Zn70        O86 1.922       .   S
Zn71        O74 1.942       .   S
Zn71        O76 1.922       .   S
Zn71        O78 1.922       .   S
Zn71        O82 1.922       .   S
Zn72        O74 1.942       .   S
Zn72        O77 1.922       .   S
Zn72        O80 1.922       .   S
Zn72        O83 1.922       .   S
Zn73        O74 1.942       .   S
Zn73        O81 1.922       .   S
Zn73        O84 1.922       .   S
Zn73        O85 1.922       .   S
O75         C87 1.304       .   A
O76         C88 1.304       .   A
O77         C89 1.304       .   A
O78         C87 1.304       .   A
O79         C89 1.304       .   A
O80         C88 1.304       .   A
O81         C90 1.304       .   A
O82         C91 1.304       .   A
O83         C90 1.304       .   A
O84         C91 1.304       .   A
O85         C92 1.304       .   A
O86         C92 1.304       .   A
C87        C493 1.540       .   S
C88        C361 1.540       .   S
C89        C427 1.540   1_556   S
C90        C515 1.540       .   S
C91        C405 1.540       .   S
C92        C398 1.540   1_565   S
Zn93        O97 1.942       .   S
Zn93        O98 1.922       .   S
Zn93       O102 1.922       .   S
Zn93       O109 1.922       .   S
Zn94        O97 1.942       .   S
Zn94        O99 1.922       .   S
Zn94       O101 1.922       .   S
Zn94       O105 1.922       .   S
Zn95        O97 1.942       .   S
Zn95       O100 1.922       .   S
Zn95       O103 1.922       .   S
Zn95       O106 1.922       .   S
Zn96        O97 1.942       .   S
Zn96       O104 1.922       .   S
Zn96       O107 1.922       .   S
Zn96       O108 1.922       .   S
O98        C110 1.304       .   A
O99        C111 1.304       .   A
O100       C112 1.304       .   A
O101       C110 1.304       .   A
O102       C112 1.304       .   A
O103       C111 1.304       .   A
O104       C113 1.304       .   A
O105       C114 1.304       .   A
O106       C113 1.304       .   A
O107       C114 1.304       .   A
O108       C115 1.304       .   A
O109       C115 1.304       .   A
C110       C552 1.540       .   S
C111       C581 1.540       .   S
C112       C266 1.540   1_665   S
C113       C559 1.540       .   S
C114       C229 1.540   1_565   S
C115       C603 1.540       .   S
Zn116      O120 1.942       .   S
Zn116      O121 1.922       .   S
Zn116      O125 1.922       .   S
Zn116      O132 1.922       .   S
Zn117      O120 1.942       .   S
Zn117      O122 1.922       .   S
Zn117      O124 1.922       .   S
Zn117      O128 1.922       .   S
Zn118      O120 1.942       .   S
Zn118      O123 1.922       .   S
Zn118      O126 1.922       .   S
Zn118      O129 1.922       .   S
Zn119      O120 1.942       .   S
Zn119      O127 1.922       .   S
Zn119      O130 1.922       .   S
Zn119      O131 1.922       .   S
O121       C133 1.304       .   A
O122       C134 1.304       .   A
O123       C135 1.304       .   A
O124       C133 1.304       .   A
O125       C135 1.304       .   A
O126       C134 1.304       .   A
O127       C136 1.304       .   A
O128       C137 1.304       .   A
O129       C136 1.304       .   A
O130       C137 1.304       .   A
O131       C138 1.304       .   A
O132       C138 1.304       .   A
C133       C332 1.540   1_465   S
C134       C537 1.540       .   S
C135       C625 1.540       .   S
C136       C339 1.540   1_565   S
C137       C662 1.540       .   S
C138       C574 1.540   1_556   S
Zn139      O143 1.942       .   S
Zn139      O144 1.922       .   S
Zn139      O148 1.922       .   S
Zn139      O155 1.922       .   S
Zn140      O143 1.942       .   S
Zn140      O145 1.922       .   S
Zn140      O147 1.922       .   S
Zn140      O151 1.922       .   S
Zn141      O143 1.942       .   S
Zn141      O146 1.922       .   S
Zn141      O149 1.922       .   S
Zn141      O152 1.922       .   S
Zn142      O143 1.942       .   S
Zn142      O150 1.922       .   S
Zn142      O153 1.922       .   S
Zn142      O154 1.922       .   S
O144       C156 1.304       .   A
O145       C157 1.304       .   A
O146       C158 1.304       .   A
O147       C156 1.304       .   A
O148       C158 1.304       .   A
O149       C157 1.304       .   A
O150       C159 1.304       .   A
O151       C160 1.304       .   A
O152       C159 1.304       .   A
O153       C160 1.304       .   A
O154       C161 1.304       .   A
O155       C161 1.304       .   A
C156       C464 1.540   1_455   S
C157       C596 1.540   1_545   S
C158       C691 1.540       .   S
C159       C471 1.540       .   S
C160       C684 1.540       .   S
C161       C618 1.540       .   S
Zn162      O166 1.942       .   S
Zn162      O167 1.922       .   S
Zn162      O171 1.922       .   S
Zn162      O178 1.922       .   S
Zn163      O166 1.942       .   S
Zn163      O168 1.922       .   S
Zn163      O170 1.922       .   S
Zn163      O174 1.922       .   S
Zn164      O166 1.942       .   S
Zn164      O169 1.922       .   S
Zn164      O172 1.922       .   S
Zn164      O175 1.922       .   S
Zn165      O166 1.942       .   S
Zn165      O173 1.922       .   S
Zn165      O176 1.922       .   S
Zn165      O177 1.922       .   S
O167       C179 1.304       .   A
O168       C180 1.304       .   A
O169       C181 1.304       .   A
O170       C179 1.304       .   A
O171       C181 1.304       .   A
O172       C180 1.304       .   A
O173       C182 1.304       .   A
O174       C183 1.304       .   A
O175       C182 1.304       .   A
O176       C183 1.304       .   A
O177       C184 1.304       .   A
O178       C184 1.304       .   A
C179       C669 1.540       .   S
C180       C508 1.540   1_455   S
C181       C640 1.540   1_545   S
C182       C706 1.540   1_556   S
C183       C647 1.540       .   S
C184       C530 1.540       .   S
C691       C692 0.037       .   A
C691       C696 0.036       .   A
C692       C693 0.037       .   A
C692       C699 0.031       .   A
C693       C694 0.037       .   A
C693       C698 0.031       .   A
C694       C695 0.037       .   A
C694       C697 0.037       .   A
C695       C696 0.036       .   A
C695      Cl701 0.047       .   A
C696       H700 0.029       .   A
C697       C704 0.037       .   A
C697       C708 0.036       .   A
C698       N703 0.031       .   A
C699       N702 0.031       .   A
C704       C705 0.036       .   A
C704       H710 0.029       .   A
C705       C706 0.036       .   A
C705       H709 0.029       .   A
C706       C707 0.036       .   A
C707       C708 0.036       .   A
C707       H712 0.029       .   A
C708       H711 0.029       .   A
C669       C670 0.037       .   A
C669       C674 0.036       .   A
C670       C671 0.037       .   A
C670       C677 0.031       .   A
C671       C672 0.037       .   A
C671       C676 0.031       .   A
C672       C673 0.037       .   A
C672       C675 0.037       .   A
C673       C674 0.036       .   A
C673      Cl679 0.047       .   A
C674       H678 0.029       .   A
C675       C682 0.037       .   A
C675       C686 0.036       .   A
C676       N681 0.031       .   A
C677       N680 0.031       .   A
C682       C683 0.036       .   A
C682       H688 0.029       .   A
C683       C684 0.036       .   A
C683       H687 0.029       .   A
C684       C685 0.036       .   A
C685       C686 0.036       .   A
C685       H690 0.029       .   A
C686       H689 0.029       .   A
C647       C648 0.037       .   A
C647       C652 0.036       .   A
C648       C649 0.037       .   A
C648       C655 0.031       .   A
C649       C650 0.037       .   A
C649       C654 0.031       .   A
C650       C651 0.037       .   A
C650       C653 0.037       .   A
C651       C652 0.036       .   A
C651      Cl657 0.047       .   A
C652       H656 0.029       .   A
C653       C660 0.037       .   A
C653       C664 0.036       .   A
C654       N659 0.031       .   A
C655       N658 0.031       .   A
C660       C661 0.036       .   A
C660       H666 0.029       .   A
C661       C662 0.036       .   A
C661       H665 0.029       .   A
C662       C663 0.036       .   A
C663       C664 0.036       .   A
C663       H668 0.029       .   A
C664       H667 0.029       .   A
C625       C626 0.037       .   A
C625       C630 0.036       .   A
C626       C627 0.037       .   A
C626       C633 0.031       .   A
C627       C628 0.037       .   A
C627       C632 0.031       .   A
C628       C629 0.037       .   A
C628       C631 0.037       .   A
C629       C630 0.036       .   A
C629      Cl635 0.047       .   A
C630       H634 0.029       .   A
C631       C638 0.037       .   A
C631       C642 0.036       .   A
C632       N637 0.031       .   A
C633       N636 0.031       .   A
C638       C639 0.036       .   A
C638       H644 0.029       .   A
C639       C640 0.036       .   A
C639       H643 0.029       .   A
C640       C641 0.036       .   A
C641       C642 0.036       .   A
C641       H646 0.029       .   A
C642       H645 0.029       .   A
C603       C604 0.037       .   A
C603       C608 0.036       .   A
C604       C605 0.037       .   A
C604       C611 0.031       .   A
C605       C606 0.037       .   A
C605       C610 0.031       .   A
C606       C607 0.037       .   A
C606       C609 0.037       .   A
C607       C608 0.036       .   A
C607      Cl613 0.047       .   A
C608       H612 0.029       .   A
C609       C616 0.037       .   A
C609       C620 0.036       .   A
C610       N615 0.031       .   A
C611       N614 0.031       .   A
C616       C617 0.036       .   A
C616       H622 0.029       .   A
C617       C618 0.036       .   A
C617       H621 0.029       .   A
C618       C619 0.036       .   A
C619       C620 0.036       .   A
C619       H624 0.029       .   A
C620       H623 0.029       .   A
C581       C582 0.037       .   A
C581       C586 0.036       .   A
C582       C583 0.037       .   A
C582       C589 0.031       .   A
C583       C584 0.037       .   A
C583       C588 0.031       .   A
C584       C585 0.037       .   A
C584       C587 0.037       .   A
C585       C586 0.036       .   A
C585      Cl591 0.047       .   A
C586       H590 0.029       .   A
C587       C594 0.037       .   A
C587       C598 0.036       .   A
C588       N593 0.031       .   A
C589       N592 0.031       .   A
C594       C595 0.036       .   A
C594       H600 0.029       .   A
C595       C596 0.036       .   A
C595       H599 0.029       .   A
C596       C597 0.036       .   A
C597       C598 0.036       .   A
C597       H602 0.029       .   A
C598       H601 0.029       .   A
C559       C560 0.037       .   A
C559       C564 0.036       .   A
C560       C561 0.037       .   A
C560       C567 0.031       .   A
C561       C562 0.037       .   A
C561       C566 0.031       .   A
C562       C563 0.037       .   A
C562       C565 0.037       .   A
C563       C564 0.036       .   A
C563      Cl569 0.047       .   A
C564       H568 0.029       .   A
C565       C572 0.037       .   A
C565       C576 0.036       .   A
C566       N571 0.031       .   A
C567       N570 0.031       .   A
C572       C573 0.036       .   A
C572       H578 0.029       .   A
C573       C574 0.036       .   A
C573       H577 0.029       .   A
C574       C575 0.036       .   A
C575       C576 0.036       .   A
C575       H580 0.029       .   A
C576       H579 0.029       .   A
C537       C538 0.037       .   A
C537       C542 0.036       .   A
C538       C539 0.037       .   A
C538       C545 0.031       .   A
C539       C540 0.037       .   A
C539       C544 0.031       .   A
C540       C541 0.037       .   A
C540       C543 0.037       .   A
C541       C542 0.036       .   A
C541      Cl547 0.047       .   A
C542       H546 0.029       .   A
C543       C550 0.037       .   A
C543       C554 0.036       .   A
C544       N549 0.031       .   A
C545       N548 0.031       .   A
C550       C551 0.036       .   A
C550       H556 0.029       .   A
C551       C552 0.036       .   A
C551       H555 0.029       .   A
C552       C553 0.036       .   A
C553       C554 0.036       .   A
C553       H558 0.029       .   A
C554       H557 0.029       .   A
C515       C516 0.037       .   A
C515       C520 0.036       .   A
C516       C517 0.037       .   A
C516       C523 0.031       .   A
C517       C518 0.037       .   A
C517       C522 0.031       .   A
C518       C519 0.037       .   A
C518       C521 0.037       .   A
C519       C520 0.036       .   A
C519      Cl525 0.047       .   A
C520       H524 0.029       .   A
C521       C528 0.037       .   A
C521       C532 0.036       .   A
C522       N527 0.031       .   A
C523       N526 0.031       .   A
C528       C529 0.036       .   A
C528       H534 0.029       .   A
C529       C530 0.036       .   A
C529       H533 0.029       .   A
C530       C531 0.036       .   A
C531       C532 0.036       .   A
C531       H536 0.029       .   A
C532       H535 0.029       .   A
C493       C494 0.037       .   A
C493       C498 0.036       .   A
C494       C495 0.037       .   A
C494       C501 0.031       .   A
C495       C496 0.037       .   A
C495       C500 0.031       .   A
C496       C497 0.037       .   A
C496       C499 0.037       .   A
C497       C498 0.036       .   A
C497      Cl503 0.047       .   A
C498       H502 0.029       .   A
C499       C506 0.037       .   A
C499       C510 0.036       .   A
C500       N505 0.031       .   A
C501       N504 0.031       .   A
C506       C507 0.036       .   A
C506       H512 0.029       .   A
C507       C508 0.036       .   A
C507       H511 0.029       .   A
C508       C509 0.036       .   A
C509       C510 0.036       .   A
C509       H514 0.029       .   A
C510       H513 0.029       .   A
C471       C472 0.037       .   A
C471       C476 0.036       .   A
C472       C473 0.037       .   A
C472       C479 0.031       .   A
C473       C474 0.037       .   A
C473       C478 0.031       .   A
C474       C475 0.037       .   A
C474       C477 0.037       .   A
C475       C476 0.036       .   A
C475      Cl481 0.047       .   A
C476       H480 0.029       .   A
C477       C484 0.037       .   A
C477       C488 0.036       .   A
C478       N483 0.031       .   A
C479       N482 0.031       .   A
C484       C485 0.036       .   A
C484       H490 0.029       .   A
C485       C486 0.036       .   A
C485       H489 0.029       .   A
C486       C487 0.036       .   A
C487       C488 0.036       .   A
C487       H492 0.029       .   A
C488       H491 0.029       .   A
C449       C450 0.037       .   A
C449       C454 0.036       .   A
C450       C451 0.037       .   A
C450       C457 0.031       .   A
C451       C452 0.037       .   A
C451       C456 0.031       .   A
C452       C453 0.037       .   A
C452       C455 0.037       .   A
C453       C454 0.036       .   A
C453      Cl459 0.047       .   A
C454       H458 0.029       .   A
C455       C462 0.037       .   A
C455       C466 0.036       .   A
C456       N461 0.031       .   A
C457       N460 0.031       .   A
C462       C463 0.036       .   A
C462       H468 0.029       .   A
C463       C464 0.036       .   A
C463       H467 0.029       .   A
C464       C465 0.036       .   A
C465       C466 0.036       .   A
C465       H470 0.029       .   A
C466       H469 0.029       .   A
C427       C428 0.037       .   A
C427       C432 0.036       .   A
C428       C429 0.037       .   A
C428       C435 0.031       .   A
C429       C430 0.037       .   A
C429       C434 0.031       .   A
C430       C431 0.037       .   A
C430       C433 0.037       .   A
C431       C432 0.036       .   A
C431      Cl437 0.047       .   A
C432       H436 0.029       .   A
C433       C440 0.037       .   A
C433       C444 0.036       .   A
C434       N439 0.031       .   A
C435       N438 0.031       .   A
C440       C441 0.036       .   A
C440       H446 0.029       .   A
C441       C442 0.036       .   A
C441       H445 0.029       .   A
C442       C443 0.036       .   A
C443       C444 0.036       .   A
C443       H448 0.029       .   A
C444       H447 0.029       .   A
C405       C406 0.037       .   A
C405       C410 0.036       .   A
C406       C407 0.037       .   A
C406       C413 0.031       .   A
C407       C408 0.037       .   A
C407       C412 0.031       .   A
C408       C409 0.037       .   A
C408       C411 0.037       .   A
C409       C410 0.036       .   A
C409      Cl415 0.047       .   A
C410       H414 0.029       .   A
C411       C418 0.037       .   A
C411       C422 0.036       .   A
C412       N417 0.031       .   A
C413       N416 0.031       .   A
C418       C419 0.036       .   A
C418       H424 0.029       .   A
C419       C420 0.036       .   A
C419       H423 0.029       .   A
C420       C421 0.036       .   A
C421       C422 0.036       .   A
C421       H426 0.029       .   A
C422       H425 0.029       .   A
C383       C384 0.037       .   A
C383       C388 0.036       .   A
C384       C385 0.037       .   A
C384       C391 0.031       .   A
C385       C386 0.037       .   A
C385       C390 0.031       .   A
C386       C387 0.037       .   A
C386       C389 0.037       .   A
C387       C388 0.036       .   A
C387      Cl393 0.047       .   A
C388       H392 0.029       .   A
C389       C396 0.037       .   A
C389       C400 0.036       .   A
C390       N395 0.031       .   A
C391       N394 0.031       .   A
C396       C397 0.036       .   A
C396       H402 0.029       .   A
C397       C398 0.036       .   A
C397       H401 0.029       .   A
C398       C399 0.036       .   A
C399       C400 0.036       .   A
C399       H404 0.029       .   A
C400       H403 0.029       .   A
C361       C362 0.037       .   A
C361       C366 0.036       .   A
C362       C363 0.037       .   A
C362       C369 0.031       .   A
C363       C364 0.037       .   A
C363       C368 0.031       .   A
C364       C365 0.037       .   A
C364       C367 0.037       .   A
C365       C366 0.036       .   A
C365      Cl371 0.047       .   A
C366       H370 0.029       .   A
C367       C374 0.037       .   A
C367       C378 0.036       .   A
C368       N373 0.031       .   A
C369       N372 0.031       .   A
C374       C375 0.036       .   A
C374       H380 0.029       .   A
C375       C376 0.036       .   A
C375       H379 0.029       .   A
C376       C377 0.036       .   A
C377       C378 0.036       .   A
C377       H382 0.029       .   A
C378       H381 0.029       .   A
C339       C340 0.037       .   A
C339       C344 0.036       .   A
C340       C341 0.037       .   A
C340       C347 0.031       .   A
C341       C342 0.037       .   A
C341       C346 0.031       .   A
C342       C343 0.037       .   A
C342       C345 0.037       .   A
C343       C344 0.036       .   A
C343      Cl349 0.047       .   A
C344       H348 0.029       .   A
C345       C352 0.037       .   A
C345       C356 0.036       .   A
C346       N351 0.031       .   A
C347       N350 0.031       .   A
C352       C353 0.036       .   A
C352       H358 0.029       .   A
C353       C354 0.036       .   A
C353       H357 0.029       .   A
C354       C355 0.036       .   A
C355       C356 0.036       .   A
C355       H360 0.029       .   A
C356       H359 0.029       .   A
C317       C318 0.037       .   A
C317       C322 0.036       .   A
C318       C319 0.037       .   A
C318       C325 0.031       .   A
C319       C320 0.037       .   A
C319       C324 0.031       .   A
C320       C321 0.037       .   A
C320       C323 0.037       .   A
C321       C322 0.036       .   A
C321      Cl327 0.047       .   A
C322       H326 0.029       .   A
C323       C330 0.037       .   A
C323       C334 0.036       .   A
C324       N329 0.031       .   A
C325       N328 0.031       .   A
C330       C331 0.036       .   A
C330       H336 0.029       .   A
C331       C332 0.036       .   A
C331       H335 0.029       .   A
C332       C333 0.036       .   A
C333       C334 0.036       .   A
C333       H338 0.029       .   A
C334       H337 0.029       .   A
C295       C296 0.037       .   A
C295       C300 0.036       .   A
C296       C297 0.037       .   A
C296       C303 0.031       .   A
C297       C298 0.037       .   A
C297       C302 0.031       .   A
C298       C299 0.037       .   A
C298       C301 0.037       .   A
C299       C300 0.036       .   A
C299      Cl305 0.047       .   A
C300       H304 0.029       .   A
C301       C308 0.037       .   A
C301       C312 0.036       .   A
C302       N307 0.031       .   A
C303       N306 0.031       .   A
C308       C309 0.036       .   A
C308       H314 0.029       .   A
C309       C310 0.036       .   A
C309       H313 0.029       .   A
C310       C311 0.036       .   A
C311       C312 0.036       .   A
C311       H316 0.029       .   A
C312       H315 0.029       .   A
C273       C274 0.037       .   A
C273       C278 0.036       .   A
C274       C275 0.037       .   A
C274       C281 0.031       .   A
C275       C276 0.037       .   A
C275       C280 0.031       .   A
C276       C277 0.037       .   A
C276       C279 0.037       .   A
C277       C278 0.036       .   A
C277      Cl283 0.047       .   A
C278       H282 0.029       .   A
C279       C286 0.037       .   A
C279       C290 0.036       .   A
C280       N285 0.031       .   A
C281       N284 0.031       .   A
C286       C287 0.036       .   A
C286       H292 0.029       .   A
C287       C288 0.036       .   A
C287       H291 0.029       .   A
C288       C289 0.036       .   A
C289       C290 0.036       .   A
C289       H294 0.029       .   A
C290       H293 0.029       .   A
C251       C252 0.037       .   A
C251       C256 0.036       .   A
C252       C253 0.037       .   A
C252       C259 0.031       .   A
C253       C254 0.037       .   A
C253       C258 0.031       .   A
C254       C255 0.037       .   A
C254       C257 0.037       .   A
C255       C256 0.036       .   A
C255      Cl261 0.047       .   A
C256       H260 0.029       .   A
C257       C264 0.037       .   A
C257       C268 0.036       .   A
C258       N263 0.031       .   A
C259       N262 0.031       .   A
C264       C265 0.036       .   A
C264       H270 0.029       .   A
C265       C266 0.036       .   A
C265       H269 0.029       .   A
C266       C267 0.036       .   A
C267       C268 0.036       .   A
C267       H272 0.029       .   A
C268       H271 0.029       .   A
C229       C230 0.037       .   A
C229       C234 0.036       .   A
C230       C231 0.037       .   A
C230       C237 0.031       .   A
C231       C232 0.037       .   A
C231       C236 0.031       .   A
C232       C233 0.037       .   A
C232       C235 0.037       .   A
C233       C234 0.036       .   A
C233      Cl239 0.047       .   A
C234       H238 0.029       .   A
C235       C242 0.037       .   A
C235       C246 0.036       .   A
C236       N241 0.031       .   A
C237       N240 0.031       .   A
C242       C243 0.036       .   A
C242       H248 0.029       .   A
C243       C244 0.036       .   A
C243       H247 0.029       .   A
C244       C245 0.036       .   A
C245       C246 0.036       .   A
C245       H250 0.029       .   A
C246       H249 0.029       .   A
C207       C208 0.037       .   A
C207       C212 0.036       .   A
C208       C209 0.037       .   A
C208       C215 0.031       .   A
C209       C210 0.037       .   A
C209       C214 0.031       .   A
C210       C211 0.037       .   A
C210       C213 0.037       .   A
C211       C212 0.036       .   A
C211      Cl217 0.047       .   A
C212       H216 0.029       .   A
C213       C220 0.037       .   A
C213       C224 0.036       .   A
C214       N219 0.031       .   A
C215       N218 0.031       .   A
C220       C221 0.036       .   A
C220       H226 0.029       .   A
C221       C222 0.036       .   A
C221       H225 0.029       .   A
C222       C223 0.036       .   A
C223       C224 0.036       .   A
C223       H228 0.029       .   A
C224       H227 0.029       .   A
C185       C186 0.037       .   A
C185       C190 0.036       .   A
C186       C187 0.037       .   A
C186       C193 0.031       .   A
C187       C188 0.037       .   A
C187       C192 0.031       .   A
C188       C189 0.037       .   A
C188       C191 0.037       .   A
C189       C190 0.036       .   A
C189      Cl195 0.047       .   A
C190       H194 0.029       .   A
C191       C198 0.037       .   A
C191       C202 0.036       .   A
C192       N197 0.031       .   A
C193       N196 0.031       .   A
C198       C199 0.036       .   A
C198       H204 0.029       .   A
C199       C200 0.036       .   A
C199       H203 0.029       .   A
C200       C201 0.036       .   A
C201       C202 0.036       .   A
C201       H206 0.029       .   A
C202       H205 0.029       .   A
