data_pcu_v1-6c_Zn_1_Ch_1-80_fer_tobacco
_audit_creation_date              2021-02-03
_audit_creation_method            'tobacco_3.0'
_symmetry_space_group_name_H-M    'P1'
_symmetry_Int_Tables_number       1
_symmetry_cell_setting            triclinic
loop_
_symmetry_equiv_pos_as_xyz
  x,y,z
_cell_length_a                    26.27666401664723
_cell_length_b                    26.27666401664723
_cell_length_c                    26.27666401664723
_cell_angle_alpha                 90.0
_cell_angle_beta                  90.0
_cell_angle_gamma                 90.0
loop_
_atom_site_label
_atom_site_type_symbol
_atom_site_fract_x
_atom_site_fract_y
_atom_site_fract_z
_atom_site_charge
Zn1       Zn   -0.0426690389   -0.0426690389    0.0426690389          1.4972
Zn2       Zn    0.0426690389    0.0426690389    0.0426690389          1.4936
Zn3       Zn    0.0426690389   -0.0426690389   -0.0426690389          1.4911
Zn4       Zn   -0.0426690389    0.0426690389   -0.0426690389          1.4948
O5         O    0.0000000000    0.0000000000    0.0000000000         -2.3123
O6         O   -0.0313586230   -0.0313586230    0.1140403515         -1.2186
O7         O    0.1140403515    0.0313586230    0.0313586230         -1.2168
O8         O    0.0313586230   -0.1140403515   -0.0313586230          -1.212
O9         O    0.0313586230    0.0313586230    0.1140403515         -1.2188
O10        O   -0.0313586230   -0.1140403515    0.0313586230         -1.2147
O11        O    0.1140403515   -0.0313586230   -0.0313586230         -1.2206
O12        O   -0.0313586230    0.0313586230   -0.1140403515         -1.2145
O13        O    0.0313586230    0.1140403515    0.0313586230         -1.2221
O14        O    0.0313586230   -0.0313586230   -0.1140403515          -1.216
O15        O   -0.0313586230    0.1140403515   -0.0313586230         -1.2206
O16        O   -0.1140403515    0.0313586230   -0.0313586230         -1.2197
O17        O   -0.1140403515   -0.0313586230    0.0313586230         -1.2176
C18        C   -0.0000000000   -0.0000000000    0.1363491194          0.3003
C19        C    0.1363491194   -0.0000000000   -0.0000000000          0.3052
C20        C   -0.0000000000   -0.1363491194    0.0000000000          0.2948
C21        C    0.0000000000    0.0000000000   -0.1363491194          0.2986
C22        C    0.0000000000    0.1363491194   -0.0000000000          0.3099
C23        C   -0.1363491194    0.0000000000    0.0000000000          0.3004
Zn24      Zn    0.9573309611    0.0426690389    0.4573309611          1.4972
Zn25      Zn    1.0426690389   -0.0426690389    0.4573309611          1.4936
Zn26      Zn    1.0426690389    0.0426690389    0.5426690389          1.4911
Zn27      Zn    0.9573309611   -0.0426690389    0.5426690389          1.4948
O28        O    1.0000000000    0.0000000000    0.5000000000         -2.3123
O29        O    0.9686413770    0.0313586230    0.3859596485         -1.2186
O30        O    1.1140403515   -0.0313586230    0.4686413770         -1.2168
O31        O    1.0313586230    0.1140403515    0.5313586230          -1.212
O32        O    1.0313586230   -0.0313586230    0.3859596485         -1.2188
O33        O    0.9686413770    0.1140403515    0.4686413770         -1.2147
O34        O    1.1140403515    0.0313586230    0.5313586230         -1.2206
O35        O    0.9686413770   -0.0313586230    0.6140403515         -1.2145
O36        O    1.0313586230   -0.1140403515    0.4686413770         -1.2221
O37        O    1.0313586230    0.0313586230    0.6140403515          -1.216
O38        O    0.9686413770   -0.1140403515    0.5313586230         -1.2206
O39        O    0.8859596485   -0.0313586230    0.5313586230         -1.2197
O40        O    0.8859596485    0.0313586230    0.4686413770         -1.2176
C41        C    1.0000000000    0.0000000000    0.3636508806          0.3003
C42        C    1.1363491194    0.0000000000    0.5000000000          0.3052
C43        C    1.0000000000    0.1363491194    0.5000000000          0.2948
C44        C    1.0000000000    0.0000000000    0.6363491194          0.2986
C45        C    1.0000000000   -0.1363491194    0.5000000000          0.3099
C46        C    0.8636508806    0.0000000000    0.5000000000          0.3004
Zn47      Zn    1.0426690389    0.4573309611   -0.0426690389          1.4972
Zn48      Zn    0.9573309611    0.4573309611    0.0426690389          1.4936
Zn49      Zn    1.0426690389    0.5426690389    0.0426690389          1.4911
Zn50      Zn    0.9573309611    0.5426690389   -0.0426690389          1.4948
O51        O    1.0000000000    0.5000000000    0.0000000000         -2.3123
O52        O    1.0313586230    0.3859596485   -0.0313586230         -1.2186
O53        O    0.9686413770    0.4686413770    0.1140403515         -1.2168
O54        O    1.1140403515    0.5313586230    0.0313586230          -1.212
O55        O    0.9686413770    0.3859596485    0.0313586230         -1.2188
O56        O    1.1140403515    0.4686413770   -0.0313586230         -1.2147
O57        O    1.0313586230    0.5313586230    0.1140403515         -1.2206
O58        O    0.9686413770    0.6140403515   -0.0313586230         -1.2145
O59        O    0.8859596485    0.4686413770    0.0313586230         -1.2221
O60        O    1.0313586230    0.6140403515    0.0313586230          -1.216
O61        O    0.8859596485    0.5313586230   -0.0313586230         -1.2206
O62        O    0.9686413770    0.5313586230   -0.1140403515         -1.2197
O63        O    1.0313586230    0.4686413770   -0.1140403515         -1.2176
C64        C    1.0000000000    0.3636508806    0.0000000000          0.3003
C65        C    1.0000000000    0.5000000000    0.1363491194          0.3052
C66        C    1.1363491194    0.5000000000    0.0000000000          0.2948
C67        C    1.0000000000    0.6363491194    0.0000000000          0.2986
C68        C    0.8636508806    0.5000000000    0.0000000000          0.3099
C69        C    1.0000000000    0.5000000000   -0.1363491194          0.3004
Zn70      Zn    0.9573309611    0.4573309611    0.5426690389          1.4972
Zn71      Zn    1.0426690389    0.4573309611    0.4573309611          1.4936
Zn72      Zn    0.9573309611    0.5426690389    0.4573309611          1.4911
Zn73      Zn    1.0426690389    0.5426690389    0.5426690389          1.4948
O74        O    1.0000000000    0.5000000000    0.5000000000         -2.3123
O75        O    0.9686413770    0.3859596485    0.5313586230         -1.2186
O76        O    1.0313586230    0.4686413770    0.3859596485         -1.2168
O77        O    0.8859596485    0.5313586230    0.4686413770          -1.212
O78        O    1.0313586230    0.3859596485    0.4686413770         -1.2188
O79        O    0.8859596485    0.4686413770    0.5313586230         -1.2147
O80        O    0.9686413770    0.5313586230    0.3859596485         -1.2206
O81        O    1.0313586230    0.6140403515    0.5313586230         -1.2145
O82        O    1.1140403515    0.4686413770    0.4686413770         -1.2221
O83        O    0.9686413770    0.6140403515    0.4686413770          -1.216
O84        O    1.1140403515    0.5313586230    0.5313586230         -1.2206
O85        O    1.0313586230    0.5313586230    0.6140403515         -1.2197
O86        O    0.9686413770    0.4686413770    0.6140403515         -1.2176
C87        C    1.0000000000    0.3636508806    0.5000000000          0.3003
C88        C    1.0000000000    0.5000000000    0.3636508806          0.3052
C89        C    0.8636508806    0.5000000000    0.5000000000          0.2948
C90        C    1.0000000000    0.6363491194    0.5000000000          0.2986
C91        C    1.1363491194    0.5000000000    0.5000000000          0.3099
C92        C    1.0000000000    0.5000000000    0.6363491194          0.3004
Zn93      Zn    0.5426690389    1.0426690389   -0.0426690389          1.4972
Zn94      Zn    0.4573309611    1.0426690389    0.0426690389          1.4936
Zn95      Zn    0.4573309611    0.9573309611   -0.0426690389          1.4911
Zn96      Zn    0.5426690389    0.9573309611    0.0426690389          1.4948
O97        O    0.5000000000    1.0000000000    0.0000000000         -2.3123
O98        O    0.5313586230    1.1140403515   -0.0313586230         -1.2186
O99        O    0.3859596485    1.0313586230    0.0313586230         -1.2168
O100       O    0.4686413770    0.9686413770   -0.1140403515          -1.212
O101       O    0.4686413770    1.1140403515    0.0313586230         -1.2188
O102       O    0.5313586230    1.0313586230   -0.1140403515         -1.2147
O103       O    0.3859596485    0.9686413770   -0.0313586230         -1.2206
O104       O    0.5313586230    0.8859596485    0.0313586230         -1.2145
O105       O    0.4686413770    1.0313586230    0.1140403515         -1.2221
O106       O    0.4686413770    0.8859596485   -0.0313586230          -1.216
O107       O    0.5313586230    0.9686413770    0.1140403515         -1.2206
O108       O    0.6140403515    0.9686413770    0.0313586230         -1.2197
O109       O    0.6140403515    1.0313586230   -0.0313586230         -1.2176
C110       C    0.5000000000    1.1363491194    0.0000000000          0.3003
C111       C    0.3636508806    1.0000000000    0.0000000000          0.3052
C112       C    0.5000000000    1.0000000000   -0.1363491194          0.2948
C113       C    0.5000000000    0.8636508806    0.0000000000          0.2986
C114       C    0.5000000000    1.0000000000    0.1363491194          0.3099
C115       C    0.6363491194    1.0000000000    0.0000000000          0.3004
Zn116     Zn    0.4573309611    1.0426690389    0.5426690389          1.4972
Zn117     Zn    0.4573309611    0.9573309611    0.4573309611          1.4936
Zn118     Zn    0.5426690389    1.0426690389    0.4573309611          1.4911
Zn119     Zn    0.5426690389    0.9573309611    0.5426690389          1.4948
O120       O    0.5000000000    1.0000000000    0.5000000000         -2.3123
O121       O    0.3859596485    1.0313586230    0.5313586230         -1.2186
O122       O    0.4686413770    0.9686413770    0.3859596485         -1.2168
O123       O    0.5313586230    1.1140403515    0.4686413770          -1.212
O124       O    0.3859596485    0.9686413770    0.4686413770         -1.2188
O125       O    0.4686413770    1.1140403515    0.5313586230         -1.2147
O126       O    0.5313586230    1.0313586230    0.3859596485         -1.2206
O127       O    0.6140403515    0.9686413770    0.5313586230         -1.2145
O128       O    0.4686413770    0.8859596485    0.4686413770         -1.2221
O129       O    0.6140403515    1.0313586230    0.4686413770          -1.216
O130       O    0.5313586230    0.8859596485    0.5313586230         -1.2206
O131       O    0.5313586230    0.9686413770    0.6140403515         -1.2197
O132       O    0.4686413770    1.0313586230    0.6140403515         -1.2176
C133       C    0.3636508806    1.0000000000    0.5000000000          0.3003
C134       C    0.5000000000    1.0000000000    0.3636508806          0.3052
C135       C    0.5000000000    1.1363491194    0.5000000000          0.2948
C136       C    0.6363491194    1.0000000000    0.5000000000          0.2986
C137       C    0.5000000000    0.8636508806    0.5000000000          0.3099
C138       C    0.5000000000    1.0000000000    0.6363491194          0.3004
Zn139     Zn    0.4573309611    0.5426690389   -0.0426690389          1.4972
Zn140     Zn    0.4573309611    0.4573309611    0.0426690389          1.4936
Zn141     Zn    0.5426690389    0.4573309611   -0.0426690389          1.4911
Zn142     Zn    0.5426690389    0.5426690389    0.0426690389          1.4948
O143       O    0.5000000000    0.5000000000    0.0000000000         -2.3123
O144       O    0.3859596485    0.5313586230   -0.0313586230         -1.2186
O145       O    0.4686413770    0.3859596485    0.0313586230         -1.2168
O146       O    0.5313586230    0.4686413770   -0.1140403515          -1.212
O147       O    0.3859596485    0.4686413770    0.0313586230         -1.2188
O148       O    0.4686413770    0.5313586230   -0.1140403515         -1.2147
O149       O    0.5313586230    0.3859596485   -0.0313586230         -1.2206
O150       O    0.6140403515    0.5313586230    0.0313586230         -1.2145
O151       O    0.4686413770    0.4686413770    0.1140403515         -1.2221
O152       O    0.6140403515    0.4686413770   -0.0313586230          -1.216
O153       O    0.5313586230    0.5313586230    0.1140403515         -1.2206
O154       O    0.5313586230    0.6140403515    0.0313586230         -1.2197
O155       O    0.4686413770    0.6140403515   -0.0313586230         -1.2176
C156       C    0.3636508806    0.5000000000    0.0000000000          0.3003
C157       C    0.5000000000    0.3636508806    0.0000000000          0.3052
C158       C    0.5000000000    0.5000000000   -0.1363491194          0.2948
C159       C    0.6363491194    0.5000000000    0.0000000000          0.2986
C160       C    0.5000000000    0.5000000000    0.1363491194          0.3099
C161       C    0.5000000000    0.6363491194    0.0000000000          0.3004
Zn162     Zn    0.4573309611    0.5426690389    0.4573309611          1.4972
Zn163     Zn    0.4573309611    0.4573309611    0.5426690389          1.4936
Zn164     Zn    0.5426690389    0.4573309611    0.4573309611          1.4911
Zn165     Zn    0.5426690389    0.5426690389    0.5426690389          1.4948
O166       O    0.5000000000    0.5000000000    0.5000000000         -2.3123
O167       O    0.3859596485    0.5313586230    0.4686413770         -1.2186
O168       O    0.4686413770    0.3859596485    0.5313586230         -1.2168
O169       O    0.5313586230    0.4686413770    0.3859596485          -1.212
O170       O    0.3859596485    0.4686413770    0.5313586230         -1.2188
O171       O    0.4686413770    0.5313586230    0.3859596485         -1.2147
O172       O    0.5313586230    0.3859596485    0.4686413770         -1.2206
O173       O    0.6140403515    0.5313586230    0.5313586230         -1.2145
O174       O    0.4686413770    0.4686413770    0.6140403515         -1.2221
O175       O    0.6140403515    0.4686413770    0.4686413770          -1.216
O176       O    0.5313586230    0.5313586230    0.6140403515         -1.2206
O177       O    0.5313586230    0.6140403515    0.5313586230         -1.2197
O178       O    0.4686413770    0.6140403515    0.4686413770         -1.2176
C179       C    0.3636508806    0.5000000000    0.5000000000          0.3003
C180       C    0.5000000000    0.3636508806    0.5000000000          0.3052
C181       C    0.5000000000    0.5000000000    0.3636508806          0.2948
C182       C    0.6363491194    0.5000000000    0.5000000000          0.2986
C183       C    0.5000000000    0.5000000000    0.6363491194          0.3099
C184       C    0.5000000000    0.6363491194    0.5000000000          0.3004
C668       C    0.5000000000    0.5000000000   -0.3050437454          0.5092
C669       C    0.5342859089    0.5268670854   -0.2914622054         -0.4605
C670       C    0.5355554354    0.5313390766   -0.2373451095         -0.4484
C671       C    0.5000000000    0.5000000000   -0.1949562546          0.5253
C672       C    0.4601807021    0.4890071348   -0.2148372004          0.5077
C673       C    0.4582940246    0.4974097286   -0.2696723894          0.5071
C674       C    0.5871185633    0.4951561153   -0.2344962376          0.5256
Cl675     Cl    0.5935587645    0.5153108239   -0.3413172149         -0.4711
N676       N    0.4372439650    0.5435426067   -0.2812558920         -0.4556
C677       C    0.4117122782    0.5017320581   -0.1755576248          0.5191
H678       H    0.3825246327    0.5052044987   -0.1348582672          0.5247
H679       H    0.4161830067    0.5288505233   -0.2013934050         -0.4597
H680       H    0.3917310590    0.5160732510   -0.2068232917          0.5251
C681       C    0.5871559605    0.4951520725   -0.2345020266          0.5256
H682       H    0.6093690120    0.5049840371   -0.2637462695         -0.4671
H683       H    0.5871933577    0.4951480297   -0.2345078156          0.5256
H684       H    0.5798925659    0.4596612451   -0.2573890604          0.4895
H685       H    0.6044421848    0.4834320518   -0.1814511144          0.5249
H686       H    0.6334178824    0.4850154897   -0.2030313687         -0.4734
H687       H    0.4407490287    0.5217832969   -0.3024643302          0.5221
H688       H    0.4632724695    0.5516968231   -0.3112016651         -0.4495
C647       C    0.5000000000    0.5000000000    0.3050437454          0.5092
C648       C    0.5311996841    0.4696035605    0.2914622054         -0.4605
C649       C    0.5319812160    0.4650210273    0.2373451095         -0.4484
C650       C    0.5000000000    0.5000000000    0.1949562546          0.5253
C651       C    0.4615928489    0.5152088894    0.2148372004          0.5077
C652       C    0.4588140056    0.5070577443    0.2696723894          0.5071
C653       C    0.5871345366    0.4954524924    0.2344962376          0.5256
Cl654     Cl    0.5913712438    0.4747223505    0.3413172149         -0.4711
N655       N    0.4329276073    0.4634545124    0.2812558920         -0.4556
C656       C    0.4120375304    0.5077669677    0.1755576248          0.5191
H657       H    0.3826457444    0.5074516727    0.1348582672          0.5247
H658       H    0.4135677221    0.4803250822    0.2013934050         -0.4597
H659       H    0.3906306897    0.4956563894    0.2068232917          0.5251
C660       C    0.5871721516    0.4954524924    0.2345020266          0.5256
H661       H    0.6081998126    0.4832900643    0.2637462695         -0.4671
H662       H    0.5872097667    0.4954524924    0.2345078156          0.5256
H663       H    0.5837653157    0.5315183932    0.2573890604          0.4895
H664       H    0.6056178898    0.5052467346    0.1814511144          0.5249
H665       H    0.6342555596    0.5005582171    0.2030313687         -0.4734
H666       H    0.4387510161    0.4847110631    0.3024643302          0.5221
H667       H    0.4579289412    0.4525500366    0.3112016651         -0.4495
C626       C    0.5000000000    0.8050437454    0.5000000000          0.5092
C627       C    0.5432446247    0.7914622054    0.4947782893         -0.4605
C628       C    0.5473032234    0.7373451095    0.4970450444         -0.4484
C629       C    0.5000000000    0.6949562546    0.5000000000          0.5253
C630       C    0.4640589783    0.7148372004    0.5203632643          0.5077
C631       C    0.4686623563    0.7696723894    0.5276414541          0.5071
C632       C    0.5582133494    0.7344962376    0.4350052830          0.5256
Cl633     Cl    0.5770133628    0.8413172149    0.4447134221         -0.4711
N634       N    0.4863720107    0.7812558920    0.5751568788         -0.4556
C635       C    0.4387603059    0.6755576248    0.5636193501          0.5191
H636       H    0.4205639944    0.6348582672    0.5867033434          0.5247
H637       H    0.4610882772    0.7013934050    0.5796462108         -0.4597
H638       H    0.4347586295    0.7068232917    0.5878867258          0.5235
C639       C    0.5582369509    0.7345020266    0.4349759937          0.5256
H640       H    0.5809010928    0.7637462695    0.4262339198         -0.4671
H641       H    0.5582605525    0.7345078156    0.4349467044          0.5256
H642       H    0.5280163206    0.7573890604    0.4149992764          0.4895
H643       H    0.5621843239    0.6814511144    0.4144676860          0.5249
H644       H    0.5838037274    0.7030313687    0.3951105240         -0.4734
H645       H    0.4734743047    0.8024643302    0.5572850514          0.5221
H646       H    0.5105499107    0.8112016651    0.5625313713         -0.4495
C605       C    0.5000000000    1.1949562546    0.5000000000          0.5092
C606       C    0.5144500650    1.2085377946    0.5410920850         -0.4605
C607       C    0.5182785560    1.2626548905    0.5437289504         -0.4484
C608       C    0.5000000000    1.3050437454    0.5000000000          0.5253
C609       C    0.5023602586    1.2851627996    0.4587586524          0.5077
C610       C    0.5109240381    1.2303276106    0.4596668464          0.5071
C611       C    0.4674682502    1.2655037624    0.5809616733          0.5256
Cl612     Cl    0.4844922874    1.1586827851    0.5935263310         -0.4711
N613       N    0.5613712740    1.2187441080    0.4545264334         -0.4556
C614       C    0.5299593611    1.3244423752    0.4169328072          0.5191
H615       H    0.5426104386    1.3651417328    0.3904011895          0.5247
H616       H    0.5542109232    1.2986065950    0.4298657226         -0.4597
H617       H    0.5499518889    1.2931767083    0.4026073833          0.5251
C618       C    0.4674524256    1.2654979734    0.5809957977          0.5256
H619       H    0.4696399164    1.2362537305    0.6051888146         -0.4671
H620       H    0.4674366010    1.2654921844    0.5810299222          0.5256
H621       H    0.4361666461    1.2426109396    0.5627322895          0.4895
H622       H    0.4508070080    1.3185488856    0.5936093821          0.5249
H623       H    0.4430126494    1.2969686313    0.6215619544         -0.4734
H624       H    0.5396374156    1.1975356698    0.4508668655          0.5221
H625       H    0.5607458361    1.1887983349    0.4817951539         -0.4495
C584       C    0.5000000000    0.8050437454    0.0000000000          0.5092
C585       C    0.5435512130    0.7914622054    0.0008097377         -0.4605
C586       C    0.5472572832    0.7373451095    0.0036160602         -0.4484
C587       C    0.5000000000    0.6949562546    0.0000000000          0.5253
C588       C    0.4615879305    0.7148372004    0.0151964631          0.5077
C589       C    0.4651404013    0.7696723894    0.0230414033          0.5071
C590       C    0.5666434068    0.7344962376   -0.0563184128          0.5256
Cl591     Cl    0.5839199726    0.8413172149   -0.0441033099         -0.4711
N592       N    0.4761078775    0.7812558920    0.0725496038         -0.4556
C593       C    0.4305495658    0.6755576248    0.0545376845          0.5191
H594       H    0.4093353462    0.6348582672    0.0748830374          0.5247
H595       H    0.4504462247    0.7013934050    0.0734987375         -0.4597
H596       H    0.4232298758    0.7068232917    0.0780183377          0.5251
C597       C    0.5666708325    0.7345020266   -0.0563441562          0.5256
H598       H    0.5903262777    0.7637462695   -0.0618674790         -0.4671
H599       H    0.5666982582    0.7345078156   -0.0563698997          0.5256
H600       H    0.5395036870    0.7573890604   -0.0803087538          0.4895
H601       H    0.5734168160    0.6814511144   -0.0761093819          0.5249
H602       H    0.5975057607    0.7030313687   -0.0922902678         -0.4734
H603       H    0.4658060281    0.8024643302    0.0530656377          0.5221
H604       H    0.5017996581    0.8112016651    0.0633895437         -0.4495
C563       C    0.5000000000    1.3050437454    0.0000000000          0.5092
C564       C    0.5134882937    1.2914622054    0.0414177469         -0.4605
C565       C    0.5120494449    1.2373451095    0.0458381674         -0.4484
C566       C    0.5000000000    1.1949562546    0.0000000000          0.5253
C567       C    0.4730689465    1.2148372004   -0.0313231213          0.5077
C568       C    0.4668186995    1.2696723894   -0.0253988029          0.5071
C569       C    0.5750278616    1.2344962376    0.0445412985          0.5256
Cl570     Cl    0.5691397486    1.3413172149    0.0648641574         -0.4711
N571       N    0.4236264772    1.2812558920    0.0011677057         -0.4556
C572       C    0.4257361138    1.1755576248   -0.0477765323          0.5191
H573       H    0.3995682438    1.1348582672   -0.0611638053          0.5247
H574       H    0.4143310713    1.2013934050   -0.0227700617         -0.4597
H575       H    0.4011530128    1.2068232917   -0.0470083622          0.5251
C576       C    0.5750611631    1.2345020266    0.0445587885          0.5256
H577       H    0.5880222543    1.2637462695    0.0651037952         -0.4671
H578       H    0.5750944647    1.2345078156    0.0445762786          0.5256
H579       H    0.5888147080    1.2573890604    0.0110446760          0.4895
H580       H    0.5959456920    1.1814511144    0.0444644922          0.5249
H581       H    0.6191192827    1.2030313687    0.0619311181         -0.4734
H582       H    0.4386658229    1.3024643302   -0.0149435052          0.5221
H583       H    0.4406904729    1.3112016651    0.0224466704         -0.4495
C542       C    0.5000000000    1.0000000000   -0.1949562546          0.5092
C543       C    0.4641006314    1.0246698026   -0.2085377946         -0.4605
C544       C    0.4625538568    1.0290536241   -0.2626548905         -0.4484
C545       C    0.5000000000    1.0000000000   -0.3050437454          0.5253
C546       C    0.5404289498    0.9915194579   -0.2851627996          0.5077
C547       C    0.5417863295    1.0000236131   -0.2303276106          0.5071
C548       C    0.4133550400    0.9897161196   -0.2655037624          0.5256
Cl549     Cl    0.4056667239    1.0094285082   -0.1586827851         -0.4711
N550       N    0.5599094406    1.0473828814   -0.2187441080         -0.4556
C551       C    0.5880064813    1.0072512816   -0.3244423752          0.5191
H552       H    0.6169197583    1.0125426815   -0.3651417328          0.5247
H553       H    0.5818481809    1.0340369849   -0.2986065950         -0.4597
H554       H    0.6070514938    1.0228142645   -0.2931767083          0.5251
C555       C    0.4133179689    0.9897097454   -0.2654979734          0.5256
H556       H    0.3905334041    0.9981329745   -0.2362537305         -0.4671
H557       H    0.4132808979    0.9897033713   -0.2654921844          0.5256
H558       H    0.4227871785    0.9547427638   -0.2426109396          0.4895
H559       H    0.3967987129    0.9769313802   -0.3185488856          0.5249
H560       H    0.3677807112    0.9766992157   -0.2969686313         -0.4734
H561       H    0.5577723396    1.0254469329   -0.1975356698          0.5221
H562       H    0.5334218420    1.0538929819   -0.1887983349         -0.4495
C521       C    0.5000000000    1.0000000000    0.3050437454          0.5092
C522       C    0.5311996841    0.9696035605    0.2914622054         -0.4605
C523       C    0.5319812160    0.9650210273    0.2373451095         -0.4484
C524       C    0.5000000000    1.0000000000    0.1949562546          0.5253
C525       C    0.4615928489    1.0152088894    0.2148372004          0.5077
C526       C    0.4588140056    1.0070577443    0.2696723894          0.5071
C527       C    0.5871345366    0.9954524924    0.2344962376          0.5256
Cl528     Cl    0.5913712438    0.9747223505    0.3413172149         -0.4711
N529       N    0.4329276073    0.9634545124    0.2812558920         -0.4556
C530       C    0.4120375304    1.0077669677    0.1755576248          0.5191
H531       H    0.3826457444    1.0074516727    0.1348582672          0.5247
H532       H    0.4135677221    0.9803250822    0.2013934050         -0.4597
H533       H    0.3906306897    0.9956563894    0.2068232917          0.5251
C534       C    0.5871721516    0.9954524924    0.2345020266          0.5256
H535       H    0.6081998126    0.9832900643    0.2637462695         -0.4671
H536       H    0.5872097667    0.9954524924    0.2345078156          0.5256
H537       H    0.5837653157    1.0315183932    0.2573890604          0.4895
H538       H    0.6056178898    1.0052467346    0.1814511144          0.5249
H539       H    0.6342555596    1.0005582171    0.2030313687         -0.4734
H540       H    0.4387510161    0.9847110631    0.3024643302          0.5221
H541       H    0.4579289412    0.9525500366    0.3112016651         -0.4495
C500       C    0.8050437454    0.5000000000    0.5000000000          0.5092
C501       C    0.7914622054    0.4885838158    0.5420361102         -0.4605
C502       C    0.7373451095    0.4902402691    0.5463796762         -0.4484
C503       C    0.6949562546    0.5000000000    0.5000000000          0.5253
C504       C    0.7148372004    0.5253433576    0.4673789363          0.5077
C505       C    0.7696723894    0.5318799161    0.4729857659          0.5071
C506       C    0.7344962376    0.4272750956    0.5482099115          0.5256
Cl507     Cl    0.8413172149    0.4341645402    0.5682155113         -0.4711
N508       N    0.7812558920    0.5763373636    0.4973759855         -0.4556
C509       C    0.6755576248    0.5718013116    0.4485967560          0.5191
H510       H    0.6348582672    0.5972725501    0.4339273148          0.5247
H511       H    0.7013934050    0.5844333267    0.4730064008         -0.4597
H512       H    0.7068232917    0.5963922432    0.4481439642          0.5251
C513       C    0.7345020266    0.4272427031    0.5482290327          0.5256
H514       H    0.7637462695    0.4153171950    0.5693919587         -0.4671
H515       H    0.7345078156    0.4272103106    0.5482481539          0.5256
H516       H    0.7573890604    0.4118428604    0.5154387814          0.4895
H517       H    0.6814511144    0.4063792292    0.5491713143          0.5249
H518       H    0.7030313687    0.3841010313    0.5677664810         -0.4734
H519       H    0.8024643302    0.5605169793    0.4820310034          0.5221
H520       H    0.8112016651    0.5603504317    0.5194755851         -0.4495
C479       C    1.1949562546    0.5000000000    0.5000000000          0.5092
C480       C    1.2085377946    0.5388366570    0.5197250576         -0.4605
C481       C    1.2626548905    0.5409475121    0.5238668801         -0.4484
C482       C    1.3050437454    0.5000000000    0.5000000000          0.5253
C483       C    1.2851627996    0.4588061625    0.4969198503          0.5077
C484       C    1.2303276106    0.4585810277    0.5055287091          0.5071
C485       C    1.2655037624    0.5845347971    0.4783903870          0.5256
Cl486     Cl    1.1586827851    0.5947531801    0.4969180182         -0.4711
N487       N    1.2187441080    0.4468554237    0.5548628521         -0.4556
C488       C    1.3244423752    0.4137160083    0.5187828278          0.5191
H489       H    1.3651417328    0.3857519007    0.5278373949          0.5247
H490       H    1.2986065950    0.4233496138    0.5445236944         -0.4597
H491       H    1.2931767083    0.3968874143    0.5367193091          0.5251
C492       C    1.2654979734    0.5845707052    0.4783791844          0.5256
H493       H    1.2362537305    0.6082664108    0.4837271484         -0.4671
H494       H    1.2654921844    0.5846066134    0.4783679817          0.5256
H495       H    1.2426109396    0.5705771771    0.4449645632          0.4895
H496       H    1.3185488856    0.5992624297    0.4635358132          0.5249
H497       H    1.2969686313    0.6279968978    0.4594825834         -0.4734
H498       H    1.1975356698    0.4460838593    0.5328365559          0.5221
H499       H    1.1887983349    0.4739698317    0.5578264935         -0.4495
C458       C    0.6949562546    0.5000000000    0.0000000000          0.5092
C459       C    0.7085377946    0.4628773102    0.0227874907         -0.4605
C460       C    0.7626548905    0.4582431032    0.0224207109         -0.4484
C461       C    0.8050437454    0.5000000000    0.0000000000          0.5253
C462       C    0.7851627996    0.5241679352   -0.0335012012          0.5077
C463       C    0.7303276106    0.5169478232   -0.0381951461          0.5071
C464       C    0.7655037624    0.4742112450    0.0833549483          0.5256
Cl465     Cl    0.6586827851    0.4530752738    0.0823755656         -0.4711
N466       N    0.7187441080    0.4810293375   -0.0739891377         -0.4556
C467       C    0.8244423752    0.5291129445   -0.0833676094          0.5191
H468       H    0.8651417328    0.5360191734   -0.1119382325          0.5247
H469       H    0.7986065950    0.5021345121   -0.0886176332         -0.4597
H470       H    0.7931767083    0.5226252079   -0.1070916101          0.5251
C471       C    0.7654979734    0.4742020153    0.0833914134          0.5256
H472       H    0.7362537305    0.4572518278    0.1007919400         -0.4671
H473       H    0.7654921844    0.4741927857    0.0834278786          0.5256
H474       H    0.7426109396    0.5100012946    0.0889382445          0.4895
H475       H    0.8185488856    0.4791707959    0.1036764734          0.5249
H476       H    0.7969686313    0.4675987627    0.1302882447         -0.4734
H477       H    0.6975356698    0.5002071664   -0.0631280184          0.5221
H478       H    0.6887983349    0.4643236226   -0.0524277514         -0.4495
C437       C    1.3050437454    0.5000000000    0.0000000000          0.5092
C438       C    1.2914622054    0.5431794650    0.0057356454         -0.4605
C439       C    1.2373451095    0.5472647350    0.0035173191         -0.4484
C440       C    1.1949562546    0.5000000000    0.0000000000          0.5253
C441       C    1.2148372004    0.4643036984   -0.0207892671          0.5077
C442       C    1.2696723894    0.4689933097   -0.0280121946          0.5071
C443       C    1.2344962376    0.5574362568    0.0656824459          0.5256
Cl444     Cl    1.3413172149    0.5763503985    0.0561985800         -0.4711
N445       N    1.2812558920    0.4872668077   -0.0753136398         -0.4556
C446       C    1.1755576248    0.4395212555   -0.0643431683          0.5191
H447       H    1.1348582672    0.4216007665   -0.0876419359          0.5247
H448       H    1.2013934050    0.4620382536   -0.0801033512         -0.4597
H449       H    1.2068232917    0.4358084716   -0.0886564193          0.5251
C450       C    1.2345020266    0.5574595083    0.0657120138          0.5256
H451       H    1.2637462695    0.5800180787    0.0747230118         -0.4671
H452       H    1.2345078156    0.5574827598    0.0657415817          0.5256
H453       H    1.2573890604    0.5270034341    0.0853279074          0.4895
H454       H    1.1814511144    0.5611626989    0.0862658168          0.5249
H455       H    1.2030313687    0.5825503605    0.1058787272         -0.4734
H456       H    1.3024643302    0.4741574660   -0.0575964675          0.5221
H457       H    1.3112016651    0.5112928439   -0.0624014799         -0.4495
C416       C    1.0000000000    0.5000000000   -0.1949562546          0.5092
C417       C    0.9631054703    0.4768449249   -0.2085377946         -0.4605
C418       C    0.9584678489    0.4771656589   -0.2626548905         -0.4484
C419       C    1.0000000000    0.5000000000   -0.3050437454          0.5253
C420       C    1.0238340038    0.5337395885   -0.2851627996          0.5077
C421       C    1.0165676270    0.5383615905   -0.2303276106          0.5071
C422       C    0.9750404115    0.4163930252   -0.2655037624          0.5256
Cl423     Cl    0.9538957555    0.4171624337   -0.1586827851         -0.4711
N424       N    0.9802954014    0.5737970685   -0.2187441080         -0.4556
C425       C    1.0282834883    0.5836526517   -0.3244423752          0.5191
H426       H    1.0349056085    0.6122904592   -0.3651417328          0.5247
H427       H    1.0012542425    0.5886344624   -0.2986065950         -0.4597
H428       H    1.0215604410    0.6073110450   -0.2931767083          0.5251
C429       C    0.9750315445    0.4163564702   -0.2654979734          0.5256
H430       H    0.9582550179    0.3987884499   -0.2362537305         -0.4671
H431       H    0.9750226775    0.4163199151   -0.2654921844          0.5256
H432       H    1.0108841500    0.4111654768   -0.2426109396          0.4895
H433       H    0.9802015544    0.3961217615   -0.3185488856          0.5249
H434       H    0.9688944044    0.3693963675   -0.2969686313         -0.4734
H435       H    0.9995801588    0.5631269622   -0.1975356698          0.5221
H436       H    0.9638046616    0.5520708219   -0.1887983349         -0.4495
C395       C    1.0000000000    0.5000000000    0.3050437454          0.5092
C396       C    0.9631054703    0.4768449249    0.2914622054         -0.4605
C397       C    0.9584678489    0.4771656589    0.2373451095         -0.4484
C398       C    1.0000000000    0.5000000000    0.1949562546          0.5253
C399       C    1.0238340038    0.5337395885    0.2148372004          0.5077
C400       C    1.0165676270    0.5383615905    0.2696723894          0.5071
C401       C    0.9750404115    0.4163930252    0.2344962376          0.5256
Cl402     Cl    0.9538957555    0.4171624337    0.3413172149         -0.4711
N403       N    0.9802954014    0.5737970685    0.2812558920         -0.4556
C404       C    1.0282834883    0.5836526517    0.1755576248          0.5191
H405       H    1.0349056085    0.6122904592    0.1348582672          0.5247
H406       H    1.0012542425    0.5886344624    0.2013934050         -0.4597
H407       H    1.0215604410    0.6073110450    0.2068232917          0.5251
C408       C    0.9750315445    0.4163564702    0.2345020266          0.5256
H409       H    0.9582550179    0.3987884499    0.2637462695         -0.4671
H410       H    0.9750226775    0.4163199151    0.2345078156          0.5256
H411       H    1.0108841500    0.4111654768    0.2573890604          0.4895
H412       H    0.9802015544    0.3961217615    0.1814511144          0.5249
H413       H    0.9688944044    0.3693963675    0.2030313687         -0.4734
H414       H    0.9995801588    0.5631269622    0.3024643302          0.5221
H415       H    0.9638046616    0.5520708219    0.3112016651         -0.4495
C374       C    1.0000000000   -0.3050437454    0.5000000000          0.5092
C375       C    0.9673168140   -0.2914622054    0.4712046327         -0.4605
C376       C    0.9626880858   -0.2373451095    0.4707741935         -0.4484
C377       C    1.0000000000   -0.1949562546    0.5000000000          0.5253
C378       C    1.0180883373   -0.2148372004    0.5371380078          0.5077
C379       C    1.0101723690   -0.2696723894    0.5405292586          0.5071
C380       C    0.9888329547   -0.2344962376    0.4134644328          0.5256
Cl381     Cl    0.9678404583   -0.3413172149    0.4108180084         -0.4711
N382       N    0.9686661344   -0.2812558920    0.5696596540         -0.4556
C383       C    1.0144401872   -0.1755576248    0.5871160309          0.5191
H384       H    1.0163631269   -0.1348582672    0.6164465406          0.5247
H385       H    0.9869614420   -0.2013934050    0.5876791712         -0.4597
H386       H    1.0039942475   -0.2068232917    0.6093826265          0.5251
C387       C    0.9888300914   -0.2345020266    0.4134269269          0.5256
H388       H    0.9751023134   -0.2637462695    0.3933860863         -0.4671
H389       H    0.9888272282   -0.2345078156    0.4133894209          0.5256
H390       H    1.0250506817   -0.2573890604    0.4140785209          0.4895
H391       H    0.9971918165   -0.1814511144    0.3942891634          0.5249
H392       H    0.9903369861   -0.2030313687    0.3660914751         -0.4734
H393       H    0.9894177305   -0.3024643302    0.5622350801          0.5221
H394       H    0.9558901805   -0.3112016651    0.5455609135         -0.4495
C353       C    1.0000000000    0.3050437454    0.5000000000          0.5092
C354       C    0.9673168140    0.2914622054    0.5287953673         -0.4605
C355       C    0.9626880858    0.2373451095    0.5292258065         -0.4484
C356       C    1.0000000000    0.1949562546    0.5000000000          0.5253
C357       C    1.0180883373    0.2148372004    0.4628619922          0.5077
C358       C    1.0101723690    0.2696723894    0.4594707414          0.5071
C359       C    0.9888329547    0.2344962376    0.5865355672          0.5256
Cl360     Cl    0.9678404583    0.3413172149    0.5891819916         -0.4711
N361       N    0.9686661344    0.2812558920    0.4303403460         -0.4556
C362       C    1.0144401872    0.1755576248    0.4128839691          0.5191
H363       H    1.0163631269    0.1348582672    0.3835534594          0.5247
H364       H    0.9869614420    0.2013934050    0.4123208288         -0.4597
H365       H    1.0039942475    0.2068232917    0.3906173735          0.5251
C366       C    0.9888300914    0.2345020266    0.5865730731          0.5256
H367       H    0.9751023134    0.2637462695    0.6066139137         -0.4671
H368       H    0.9888272282    0.2345078156    0.5866105791          0.5256
H369       H    1.0250506817    0.2573890604    0.5859214791          0.4895
H370       H    0.9971918165    0.1814511144    0.6057108366          0.5249
H371       H    0.9903369861    0.2030313687    0.6339085249         -0.4734
H372       H    0.9894177305    0.3024643302    0.4377649199          0.5221
H373       H    0.9558901805    0.3112016651    0.4544390865         -0.4495
C332       C    0.6949562546   -0.0000000000    0.5000000000          0.5092
C333       C    0.7085377946   -0.0014399951    0.4564650687         -0.4605
C334       C    0.7626548905    0.0011712310    0.4526190447         -0.4484
C335       C    0.8050437454   -0.0000000000    0.5000000000          0.5253
C336       C    0.7851627996    0.0171595000    0.5375762043          0.5077
C337       C    0.7303276106    0.0248105538    0.5336234191          0.5071
C338       C    0.7655037624   -0.0596842507    0.4363533386          0.5256
Cl339     Cl    0.6586827851   -0.0483774709    0.4184691221         -0.4711
N340       N    0.7187441080    0.0736864413    0.5201143455         -0.4556
C341       C    0.8244423752    0.0580508311    0.5665418879          0.5191
H342       H    0.8651417328    0.0794643871    0.5866773322          0.5247
H343       H    0.7986065950    0.0759592812    0.5456927637         -0.4597
H344       H    0.7931767083    0.0818780978    0.5726394527          0.5251
C345       C    0.7654979734   -0.0597113758    0.4363272786          0.5256
H346       H    0.7362537305   -0.0664487182    0.4129885683         -0.4671
H347       H    0.7654921844   -0.0597385009    0.4363012186          0.5256
H348       H    0.7426109396   -0.0822413041    0.4646955367          0.4895
H349       H    0.8185488856   -0.0797985489    0.4306108188          0.5249
H350       H    0.7969686313   -0.0972016216    0.4073894626         -0.4734
H351       H    0.6975356698    0.0547603727    0.5314084575          0.5221
H352       H    0.6887983349    0.0632120715    0.4949297894         -0.4495
C311       C    1.3050437454   -0.0000000000    0.5000000000          0.5092
C312       C    1.2914622054   -0.0366014446    0.5236156321         -0.4605
C313       C    1.2373451095   -0.0382750209    0.5279526293         -0.4484
C314       C    1.1949562546   -0.0000000000    0.5000000000          0.5253
C315       C    1.2148372004    0.0406584228    0.4926984780          0.5077
C316       C    1.2696723894    0.0417679782    0.5012385027          0.5071
C317       C    1.2344962376   -0.0863093371    0.4872013435          0.5256
Cl318     Cl    1.3413172149   -0.0945675229    0.5066818680         -0.4711
N319       N    1.2812558920    0.0585065002    0.5491046633         -0.4556
C320       C    1.1755576248    0.0877584530    0.5098069247          0.5191
H321       H    1.1348582672    0.1165056645    0.5159367149          0.5247
H322       H    1.2013934050    0.0808239859    0.5364022576         -0.4597
H323       H    1.2068232917    0.1063429348    0.5259170449          0.5251
C324       C    1.2345020266   -0.0863462072    0.4871938942          0.5256
H325       H    1.2637462695   -0.1093660378    0.4949511219         -0.4671
H326       H    1.2345078156   -0.0863830773    0.4871864449          0.5256
H327       H    1.2573890604   -0.0758643674    0.4525170032          0.4895
H328       H    1.1814511144   -0.1024869605    0.4739406486          0.5249
H329       H    1.2030313687   -0.1314859452    0.4728649101         -0.4734
H330       H    1.3024643302    0.0570080705    0.5271158538          0.5221
H331       H    1.3112016651    0.0318408237    0.5548419088         -0.4495
C290       C   -0.0000000000   -0.1949562546    0.0000000000          0.5092
C291       C    0.0429559452   -0.2085377946   -0.0072215372         -0.4605
C292       C    0.0471152969   -0.2626548905   -0.0051454359         -0.4484
C293       C   -0.0000000000   -0.3050437454    0.0000000000          0.5253
C294       C   -0.0349580192   -0.2851627996    0.0220081000          0.5077
C295       C   -0.0300220720   -0.2303276106    0.0290649804          0.5071
C296       C    0.0551366271   -0.2655037624   -0.0676244012          0.5256
Cl297     Cl    0.0743666234   -0.1586827851   -0.0587985465         -0.4711
N298       N   -0.0101279708   -0.2187441080    0.0757080097         -0.4556
C299       C   -0.0582234977   -0.3244423752    0.0663908590          0.5191
H300       H   -0.0753297255   -0.3651417328    0.0902938602          0.5247
H301       H   -0.0351763121   -0.2986065950    0.0813650301         -0.4597
H302       H   -0.0610954833   -0.2931767083    0.0908177015          0.5251
C303       C    0.0551588450   -0.2654979734   -0.0676547535          0.5256
H304       H    0.0773931945   -0.2362537305   -0.0774384584         -0.4671
H305       H    0.0551810628   -0.2654921844   -0.0676851058          0.5256
H306       H    0.0240443195   -0.2426109396   -0.0862085142          0.4895
H307       H    0.0581509103   -0.3185488856   -0.0883240540          0.5249
H308       H    0.0788493769   -0.2969686313   -0.1086629774         -0.4734
H309       H   -0.0238405961   -0.1975356698    0.0584535337          0.5221
H310       H    0.0134384163   -0.1887983349    0.0619748496         -0.4495
C269       C    0.0000000000    0.1949562546    0.0000000000          0.5092
C270       C    0.0318507338    0.2085377946    0.0297135421         -0.4605
C271       C    0.0364653425    0.2626548905    0.0302754935         -0.4484
C272       C    0.0000000000    0.3050437454    0.0000000000          0.5253
C273       C   -0.0170244462    0.2851627996   -0.0376375850          0.5077
C274       C   -0.0090152017    0.2303276106   -0.0408022552          0.5071
C275       C    0.0087006044    0.2655037624    0.0868182398          0.5256
Cl276     Cl    0.0296093133    0.1586827851    0.0900608256         -0.4711
N277       N    0.0333029865    0.2187441080   -0.0687400147         -0.4556
C278       C   -0.0119559074    0.3244423752   -0.0874915889          0.5191
H279       H   -0.0130436212    0.3651417328   -0.1168649335          0.5247
H280       H    0.0155277363    0.2986065950   -0.0872727361         -0.4597
H281       H   -0.0008807155    0.2931767083   -0.1094519864          0.5251
C282       C    0.0087023995    0.2654979734    0.0868558121          0.5256
H283       H    0.0218544627    0.2362537305    0.1072790933         -0.4671
H284       H    0.0087041946    0.2654921844    0.0868933843          0.5256
H285       H   -0.0274849917    0.2426109396    0.0851740128          0.4895
H286       H   -0.0002004067    0.3185488856    0.1057479395          0.5249
H287       H    0.0058494301    0.2969686313    0.1341292327         -0.4734
H288       H    0.0123485625    0.1975356698   -0.0619088251          0.5221
H289       H    0.0453881643    0.1887983349   -0.0442875554         -0.4495
C248       C   -0.1949562546   -0.0000000000    0.0000000000          0.5092
C249       C   -0.2085377946   -0.0434130742    0.0035593276         -0.4605
C250       C   -0.2626548905   -0.0469344619    0.0065941640         -0.4484
C251       C   -0.3050437454   -0.0000000000    0.0000000000          0.5253
C252       C   -0.2851627996    0.0392953353    0.0127395523          0.5077
C253       C   -0.2303276106    0.0362455388    0.0207932395          0.5071
C254       C   -0.2655037624   -0.0700680317   -0.0519959443          0.5256
Cl255     Cl   -0.1586827851   -0.0865384408   -0.0387138477         -0.4711
N256       N   -0.2187441080    0.0284274889    0.0708953906         -0.4556
C257       C   -0.3244423752    0.0727569608    0.0500414478          0.5191
H258       H   -0.3651417328    0.0952140605    0.0690060245          0.5247
H259       H   -0.2986065950    0.0540978454    0.0702215365         -0.4597
H260       H   -0.2931767083    0.0815453454    0.0730128046          0.5251
C261       C   -0.2654979734   -0.0700970289   -0.0520199038          0.5256
H262       H   -0.2362537305   -0.0940541444   -0.0560378383         -0.4671
H263       H   -0.2654921844   -0.0701260261   -0.0520438632          0.5256
H264       H   -0.2426109396   -0.0444980312   -0.0776528328          0.4895
H265       H   -0.3185488856   -0.0780781427   -0.0713194960          0.5249
H266       H   -0.2969686313   -0.1031411490   -0.0859463220         -0.4734
H267       H   -0.1975356698    0.0374779255    0.0507995544          0.5221
H268       H   -0.1887983349    0.0022083661    0.0633766214         -0.4495
C227       C    0.3050437454   -0.0000000000    0.0000000000          0.5092
C228       C    0.2914622054    0.0383263893    0.0206990751         -0.4605
C229       C    0.2373451095    0.0429332114    0.0200765054         -0.4484
C230       C    0.1949562546   -0.0000000000    0.0000000000          0.5253
C231       C    0.2148372004   -0.0259841233   -0.0321130021          0.5077
C232       C    0.2696723894   -0.0190347226   -0.0371991563          0.5071
C233       C    0.2344962376    0.0303602323    0.0818007554          0.5256
Cl234     Cl    0.3413172149    0.0514096640    0.0796536892         -0.4711
N235       N    0.2812558920    0.0148487416   -0.0749252521         -0.4556
C236       C    0.1755576248   -0.0336800323   -0.0816295122          0.5191
H237       H    0.1348582672   -0.0421561340   -0.1097743554          0.5247
H238       H    0.2013934050   -0.0070333251   -0.0883638693         -0.4597
H239       H    0.2068232917   -0.0285145752   -0.1056760710          0.5251
C240       C    0.2345020266    0.0303714650    0.0818366542          0.5256
H241       H    0.2637462695    0.0482582477    0.0982729003         -0.4671
H242       H    0.2345078156    0.0303826976    0.0818725529          0.5256
H243       H    0.2573890604   -0.0050661643    0.0893553088          0.4895
H244       H    0.1814511144    0.0265324056    0.1023655134          0.5249
H245       H    0.2030313687    0.0395588093    0.1282964049         -0.4734
H246       H    0.3024643302   -0.0036989159   -0.0630198988          0.5221
H247       H    0.3112016651    0.0327215933   -0.0543209937         -0.4495
C206       C    0.0000000000    0.0000000000   -0.1949562546          0.5092
C207       C   -0.0238551616    0.0364457829   -0.2085377946         -0.4605
C208       C   -0.0236230169    0.0410886819   -0.2626548905         -0.4484
C209       C    0.0000000000    0.0000000000   -0.3050437454          0.5253
C210       C    0.0341884246   -0.0231855817   -0.2851627996          0.5077
C211       C    0.0386708713   -0.0158322963   -0.2303276106          0.5071
C212       C   -0.0840682108    0.0233590072   -0.2655037624          0.5256
Cl213     Cl   -0.0837025879    0.0445144980   -0.1586827851         -0.4711
N214       N    0.0734074657    0.0211097727   -0.2187441080         -0.4556
C215       C    0.0841773317   -0.0266814293   -0.3244423752          0.5191
H216       H    0.1129363351   -0.0327556554   -0.3651417328          0.5247
H217       H    0.0886422541    0.0004379924   -0.2986065950         -0.4597
H218       H    0.1077030728   -0.0195079753   -0.2931767083          0.5251
C219       C   -0.0841049285    0.0233671748   -0.2654979734          0.5256
H220       H   -0.1019900064    0.0398052759   -0.2362537305         -0.4671
H221       H   -0.0841416461    0.0233753424   -0.2654921844          0.5256
H222       H   -0.0886105600   -0.0125779920   -0.2426109396          0.4895
H223       H   -0.1042372559    0.0178118322   -0.3185488856          0.5249
H224       H   -0.1311736300    0.0286067418   -0.2969686313         -0.4734
H225       H    0.0631074442    0.0016248402   -0.1975356698          0.5221
H226       H    0.0513703748    0.0371827597   -0.1887983349         -0.4495
C185       C   -0.0000000000    0.0000000000    0.1949562546          0.5092
C186       C    0.0293954040    0.0321445804    0.2085377946         -0.4605
C187       C    0.0299114479    0.0367645481    0.2626548905         -0.4484
C188       C   -0.0000000000    0.0000000000    0.3050437454          0.5253
C189       C   -0.0374664626   -0.0173978088    0.2851627996          0.5077
C190       C   -0.0407106067   -0.0094204242    0.2303276106          0.5071
C191       C    0.0867274448    0.0095633471    0.2655037624          0.5256
Cl192     Cl    0.0897619897    0.0305032613    0.1586827851         -0.4711
N193       N   -0.0690677253    0.0326179068    0.2187441080         -0.4556
C194       C   -0.0873683953   -0.0128251838    0.3244423752          0.5191
H195       H   -0.1167294738   -0.0142048824    0.3651417328          0.5247
H196       H   -0.0874228039    0.0146592774    0.2986065950         -0.4597
H197       H   -0.1094378203   -0.0019688761    0.2931767083          0.5251
C198       C    0.0867649973    0.0095655157    0.2654979734          0.5256
H199       H    0.1070565074    0.0229199831    0.2362537305         -0.4671
H200       H    0.0868025498    0.0095676842    0.2654921844          0.5256
H201       H    0.0854430670   -0.0266368079    0.2426109396          0.4895
H202       H    0.1057447053    0.0008509807    0.3185488856          0.5249
H203       H    0.1340644465    0.0071826936    0.2969686313         -0.4734
H204       H   -0.0620285383    0.0117324362    0.1975356698          0.5221
H205       H   -0.0447366290    0.0449456009    0.1887983349         -0.4495
loop_
_geom_bond_atom_site_label_1
_geom_bond_atom_site_label_2
_geom_bond_distance
_geom_bond_site_symmetry_2
_ccdc_geom_bond_type
Zn1          O5 1.942       .   S
Zn1          O6 1.922       .   S
Zn1         O10 1.922       .   S
Zn1         O17 1.922       .   S
Zn2          O5 1.942       .   S
Zn2          O7 1.922       .   S
Zn2          O9 1.922       .   S
Zn2         O13 1.922       .   S
Zn3          O5 1.942       .   S
Zn3          O8 1.922       .   S
Zn3         O11 1.922       .   S
Zn3         O14 1.922       .   S
Zn4          O5 1.942       .   S
Zn4         O12 1.922       .   S
Zn4         O15 1.922       .   S
Zn4         O16 1.922       .   S
O6          C18 1.304       .   A
O7          C19 1.304       .   A
O8          C20 1.304       .   A
O9          C18 1.304       .   A
O10         C20 1.304       .   A
O11         C19 1.304       .   A
O12         C21 1.304       .   A
O13         C22 1.304       .   A
O14         C21 1.304       .   A
O15         C22 1.304       .   A
O16         C23 1.304       .   A
O17         C23 1.304       .   A
C18        C185 1.540       .   S
C19        C230 1.540       .   S
C20        C290 1.540       .   S
C21        C206 1.540       .   S
C22        C269 1.540       .   S
C23        C248 1.540       .   S
Zn24        O28 1.942       .   S
Zn24        O29 1.922       .   S
Zn24        O33 1.922       .   S
Zn24        O40 1.922       .   S
Zn25        O28 1.942       .   S
Zn25        O30 1.922       .   S
Zn25        O32 1.922       .   S
Zn25        O36 1.922       .   S
Zn26        O28 1.942       .   S
Zn26        O31 1.922       .   S
Zn26        O34 1.922       .   S
Zn26        O37 1.922       .   S
Zn27        O28 1.942       .   S
Zn27        O35 1.922       .   S
Zn27        O38 1.922       .   S
Zn27        O39 1.922       .   S
O29         C41 1.304       .   A
O30         C42 1.304       .   A
O31         C43 1.304       .   A
O32         C41 1.304       .   A
O33         C43 1.304       .   A
O34         C42 1.304       .   A
O35         C44 1.304       .   A
O36         C45 1.304       .   A
O37         C44 1.304       .   A
O38         C45 1.304       .   A
O39         C46 1.304       .   A
O40         C46 1.304       .   A
C41        C188 1.540   1_655   S
C42        C314 1.540       .   S
C43        C356 1.540       .   S
C44        C209 1.540   1_656   S
C45        C377 1.540       .   S
C46        C335 1.540       .   S
Zn47        O51 1.942       .   S
Zn47        O52 1.922       .   S
Zn47        O56 1.922       .   S
Zn47        O63 1.922       .   S
Zn48        O51 1.942       .   S
Zn48        O53 1.922       .   S
Zn48        O55 1.922       .   S
Zn48        O59 1.922       .   S
Zn49        O51 1.942       .   S
Zn49        O54 1.922       .   S
Zn49        O57 1.922       .   S
Zn49        O60 1.922       .   S
Zn50        O51 1.942       .   S
Zn50        O58 1.922       .   S
Zn50        O61 1.922       .   S
Zn50        O62 1.922       .   S
O52         C64 1.304       .   A
O53         C65 1.304       .   A
O54         C66 1.304       .   A
O55         C64 1.304       .   A
O56         C66 1.304       .   A
O57         C65 1.304       .   A
O58         C67 1.304       .   A
O59         C68 1.304       .   A
O60         C67 1.304       .   A
O61         C68 1.304       .   A
O62         C69 1.304       .   A
O63         C69 1.304       .   A
C64        C272 1.540   1_655   S
C65        C398 1.540       .   S
C66        C440 1.540       .   S
C67        C293 1.540   1_665   S
C68        C461 1.540       .   S
C69        C416 1.540       .   S
Zn70        O74 1.942       .   S
Zn70        O75 1.922       .   S
Zn70        O79 1.922       .   S
Zn70        O86 1.922       .   S
Zn71        O74 1.942       .   S
Zn71        O76 1.922       .   S
Zn71        O78 1.922       .   S
Zn71        O82 1.922       .   S
Zn72        O74 1.942       .   S
Zn72        O77 1.922       .   S
Zn72        O80 1.922       .   S
Zn72        O83 1.922       .   S
Zn73        O74 1.942       .   S
Zn73        O81 1.922       .   S
Zn73        O84 1.922       .   S
Zn73        O85 1.922       .   S
O75         C87 1.304       .   A
O76         C88 1.304       .   A
O77         C89 1.304       .   A
O78         C87 1.304       .   A
O79         C89 1.304       .   A
O80         C88 1.304       .   A
O81         C90 1.304       .   A
O82         C91 1.304       .   A
O83         C90 1.304       .   A
O84         C91 1.304       .   A
O85         C92 1.304       .   A
O86         C92 1.304       .   A
C87        C353 1.540       .   S
C88        C395 1.540       .   S
C89        C500 1.540       .   S
C90        C374 1.540   1_565   S
C91        C479 1.540       .   S
C92        C419 1.540   1_556   S
Zn93        O97 1.942       .   S
Zn93        O98 1.922       .   S
Zn93       O102 1.922       .   S
Zn93       O109 1.922       .   S
Zn94        O97 1.942       .   S
Zn94        O99 1.922       .   S
Zn94       O101 1.922       .   S
Zn94       O105 1.922       .   S
Zn95        O97 1.942       .   S
Zn95       O100 1.922       .   S
Zn95       O103 1.922       .   S
Zn95       O106 1.922       .   S
Zn96        O97 1.942       .   S
Zn96       O104 1.922       .   S
Zn96       O107 1.922       .   S
Zn96       O108 1.922       .   S
O98        C110 1.304       .   A
O99        C111 1.304       .   A
O100       C112 1.304       .   A
O101       C110 1.304       .   A
O102       C112 1.304       .   A
O103       C111 1.304       .   A
O104       C113 1.304       .   A
O105       C114 1.304       .   A
O106       C113 1.304       .   A
O107       C114 1.304       .   A
O108       C115 1.304       .   A
O109       C115 1.304       .   A
C110       C566 1.540       .   S
C111       C227 1.540   1_565   S
C112       C542 1.540       .   S
C113       C584 1.540       .   S
C114       C524 1.540       .   S
C115       C251 1.540   1_665   S
Zn116      O120 1.942       .   S
Zn116      O121 1.922       .   S
Zn116      O125 1.922       .   S
Zn116      O132 1.922       .   S
Zn117      O120 1.942       .   S
Zn117      O122 1.922       .   S
Zn117      O124 1.922       .   S
Zn117      O128 1.922       .   S
Zn118      O120 1.942       .   S
Zn118      O123 1.922       .   S
Zn118      O126 1.922       .   S
Zn118      O129 1.922       .   S
Zn119      O120 1.942       .   S
Zn119      O127 1.922       .   S
Zn119      O130 1.922       .   S
Zn119      O131 1.922       .   S
O121       C133 1.304       .   A
O122       C134 1.304       .   A
O123       C135 1.304       .   A
O124       C133 1.304       .   A
O125       C135 1.304       .   A
O126       C134 1.304       .   A
O127       C136 1.304       .   A
O128       C137 1.304       .   A
O129       C136 1.304       .   A
O130       C137 1.304       .   A
O131       C138 1.304       .   A
O132       C138 1.304       .   A
C133       C311 1.540   1_465   S
C134       C521 1.540       .   S
C135       C605 1.540       .   S
C136       C332 1.540   1_565   S
C137       C626 1.540       .   S
C138       C545 1.540   1_556   S
Zn139      O143 1.942       .   S
Zn139      O144 1.922       .   S
Zn139      O148 1.922       .   S
Zn139      O155 1.922       .   S
Zn140      O143 1.942       .   S
Zn140      O145 1.922       .   S
Zn140      O147 1.922       .   S
Zn140      O151 1.922       .   S
Zn141      O143 1.942       .   S
Zn141      O146 1.922       .   S
Zn141      O149 1.922       .   S
Zn141      O152 1.922       .   S
Zn142      O143 1.942       .   S
Zn142      O150 1.922       .   S
Zn142      O153 1.922       .   S
Zn142      O154 1.922       .   S
O144       C156 1.304       .   A
O145       C157 1.304       .   A
O146       C158 1.304       .   A
O147       C156 1.304       .   A
O148       C158 1.304       .   A
O149       C157 1.304       .   A
O150       C159 1.304       .   A
O151       C160 1.304       .   A
O152       C159 1.304       .   A
O153       C160 1.304       .   A
O154       C161 1.304       .   A
O155       C161 1.304       .   A
C156       C437 1.540   1_455   S
C157       C563 1.540   1_545   S
C158       C671 1.540       .   S
C159       C458 1.540       .   S
C160       C650 1.540       .   S
C161       C587 1.540       .   S
Zn162      O166 1.942       .   S
Zn162      O167 1.922       .   S
Zn162      O171 1.922       .   S
Zn162      O178 1.922       .   S
Zn163      O166 1.942       .   S
Zn163      O168 1.922       .   S
Zn163      O170 1.922       .   S
Zn163      O174 1.922       .   S
Zn164      O166 1.942       .   S
Zn164      O169 1.922       .   S
Zn164      O172 1.922       .   S
Zn164      O175 1.922       .   S
Zn165      O166 1.942       .   S
Zn165      O173 1.922       .   S
Zn165      O176 1.922       .   S
Zn165      O177 1.922       .   S
O167       C179 1.304       .   A
O168       C180 1.304       .   A
O169       C181 1.304       .   A
O170       C179 1.304       .   A
O171       C181 1.304       .   A
O172       C180 1.304       .   A
O173       C182 1.304       .   A
O174       C183 1.304       .   A
O175       C182 1.304       .   A
O176       C183 1.304       .   A
O177       C184 1.304       .   A
O178       C184 1.304       .   A
C179       C482 1.540   1_455   S
C180       C608 1.540   1_545   S
C181       C647 1.540       .   S
C182       C503 1.540       .   S
C183       C668 1.540   1_556   S
C184       C629 1.540       .   S
C668       C669 0.042       .   A
C668       C673 0.050       .   A
C669       C670 0.050       .   A
C669      Cl675 0.072       .   A
C670       C671 0.058       .   A
C670       C674 0.058       .   A
C671       C672 0.042       .   A
C672       C673 0.051       .   A
C672       C677 0.059       .   A
C673       N676 0.048       .   A
C674       C681 0.000       .   A
C674       H685 0.052       .   A
C674       H686 0.052       .   A
N676       H687 0.028       .   A
N676       H688 0.037       .   A
C677       H678 0.046       .   A
C677       H679 0.035       .   A
C677       H680 0.037       .   A
C681       H682 0.035       .   A
C681       H683 0.000       .   A
C681       H684 0.039       .   A
C647       C648 0.042       .   A
C647       C652 0.050       .   A
C648       C649 0.050       .   A
C648      Cl654 0.072       .   A
C649       C650 0.058       .   A
C649       C653 0.058       .   A
C650       C651 0.042       .   A
C651       C652 0.051       .   A
C651       C656 0.059       .   A
C652       N655 0.048       .   A
C653       C660 0.000       .   A
C653       H664 0.052       .   A
C653       H665 0.052       .   A
N655       H666 0.028       .   A
N655       H667 0.037       .   A
C656       H657 0.046       .   A
C656       H658 0.035       .   A
C656       H659 0.037       .   A
C660       H661 0.035       .   A
C660       H662 0.000       .   A
C660       H663 0.039       .   A
C626       C627 0.042       .   A
C626       C631 0.050       .   A
C627       C628 0.050       .   A
C627      Cl633 0.072       .   A
C628       C629 0.058       .   A
C628       C632 0.058       .   A
C629       C630 0.042       .   A
C630       C631 0.051       .   A
C630       C635 0.059       .   A
C631       N634 0.048       .   A
C632       C639 0.000       .   A
C632       H643 0.052       .   A
C632       H644 0.052       .   A
N634       H645 0.028       .   A
N634       H646 0.037       .   A
C635       H636 0.046       .   A
C635       H637 0.035       .   A
C635       H638 0.037       .   A
C639       H640 0.035       .   A
C639       H641 0.000       .   A
C639       H642 0.039       .   A
C605       C606 0.042       .   A
C605       C610 0.050       .   A
C606       C607 0.050       .   A
C606      Cl612 0.072       .   A
C607       C608 0.058       .   A
C607       C611 0.058       .   A
C608       C609 0.042       .   A
C609       C610 0.051       .   A
C609       C614 0.059       .   A
C610       N613 0.048       .   A
C611       C618 0.000       .   A
C611       H622 0.052       .   A
C611       H623 0.052       .   A
N613       H624 0.028       .   A
N613       H625 0.037       .   A
C614       H615 0.046       .   A
C614       H616 0.035       .   A
C614       H617 0.037       .   A
C618       H619 0.035       .   A
C618       H620 0.000       .   A
C618       H621 0.039       .   A
C584       C585 0.042       .   A
C584       C589 0.050       .   A
C585       C586 0.050       .   A
C585      Cl591 0.072       .   A
C586       C587 0.058       .   A
C586       C590 0.058       .   A
C587       C588 0.042       .   A
C588       C589 0.051       .   A
C588       C593 0.059       .   A
C589       N592 0.048       .   A
C590       C597 0.000       .   A
C590       H601 0.052       .   A
C590       H602 0.052       .   A
N592       H603 0.028       .   A
N592       H604 0.037       .   A
C593       H594 0.046       .   A
C593       H595 0.035       .   A
C593       H596 0.037       .   A
C597       H598 0.035       .   A
C597       H599 0.000       .   A
C597       H600 0.039       .   A
C563       C564 0.042       .   A
C563       C568 0.050       .   A
C564       C565 0.050       .   A
C564      Cl570 0.072       .   A
C565       C566 0.058       .   A
C565       C569 0.058       .   A
C566       C567 0.042       .   A
C567       C568 0.051       .   A
C567       C572 0.059       .   A
C568       N571 0.048       .   A
C569       C576 0.000       .   A
C569       H580 0.052       .   A
C569       H581 0.052       .   A
N571       H582 0.028       .   A
N571       H583 0.037       .   A
C572       H573 0.046       .   A
C572       H574 0.035       .   A
C572       H575 0.037       .   A
C576       H577 0.035       .   A
C576       H578 0.000       .   A
C576       H579 0.039       .   A
C542       C543 0.042       .   A
C542       C547 0.050       .   A
C543       C544 0.050       .   A
C543      Cl549 0.072       .   A
C544       C545 0.058       .   A
C544       C548 0.058       .   A
C545       C546 0.042       .   A
C546       C547 0.051       .   A
C546       C551 0.059       .   A
C547       N550 0.048       .   A
C548       C555 0.000       .   A
C548       H559 0.052       .   A
C548       H560 0.052       .   A
N550       H561 0.028       .   A
N550       H562 0.037       .   A
C551       H552 0.046       .   A
C551       H553 0.035       .   A
C551       H554 0.037       .   A
C555       H556 0.035       .   A
C555       H557 0.000       .   A
C555       H558 0.039       .   A
C521       C522 0.042       .   A
C521       C526 0.050       .   A
C522       C523 0.050       .   A
C522      Cl528 0.072       .   A
C523       C524 0.058       .   A
C523       C527 0.058       .   A
C524       C525 0.042       .   A
C525       C526 0.051       .   A
C525       C530 0.059       .   A
C526       N529 0.048       .   A
C527       C534 0.000       .   A
C527       H538 0.052       .   A
C527       H539 0.052       .   A
N529       H540 0.028       .   A
N529       H541 0.037       .   A
C530       H531 0.046       .   A
C530       H532 0.035       .   A
C530       H533 0.037       .   A
C534       H535 0.035       .   A
C534       H536 0.000       .   A
C534       H537 0.039       .   A
C500       C501 0.042       .   A
C500       C505 0.050       .   A
C501       C502 0.050       .   A
C501      Cl507 0.072       .   A
C502       C503 0.058       .   A
C502       C506 0.058       .   A
C503       C504 0.042       .   A
C504       C505 0.051       .   A
C504       C509 0.059       .   A
C505       N508 0.048       .   A
C506       C513 0.000       .   A
C506       H517 0.052       .   A
C506       H518 0.052       .   A
N508       H519 0.028       .   A
N508       H520 0.037       .   A
C509       H510 0.046       .   A
C509       H511 0.035       .   A
C509       H512 0.037       .   A
C513       H514 0.035       .   A
C513       H515 0.000       .   A
C513       H516 0.039       .   A
C479       C480 0.042       .   A
C479       C484 0.050       .   A
C480       C481 0.050       .   A
C480      Cl486 0.072       .   A
C481       C482 0.058       .   A
C481       C485 0.058       .   A
C482       C483 0.042       .   A
C483       C484 0.051       .   A
C483       C488 0.059       .   A
C484       N487 0.048       .   A
C485       C492 0.000       .   A
C485       H496 0.052       .   A
C485       H497 0.052       .   A
N487       H498 0.028       .   A
N487       H499 0.037       .   A
C488       H489 0.046       .   A
C488       H490 0.035       .   A
C488       H491 0.037       .   A
C492       H493 0.035       .   A
C492       H494 0.000       .   A
C492       H495 0.039       .   A
C458       C459 0.042       .   A
C458       C463 0.050       .   A
C459       C460 0.050       .   A
C459      Cl465 0.072       .   A
C460       C461 0.058       .   A
C460       C464 0.058       .   A
C461       C462 0.042       .   A
C462       C463 0.051       .   A
C462       C467 0.059       .   A
C463       N466 0.048       .   A
C464       C471 0.000       .   A
C464       H475 0.052       .   A
C464       H476 0.052       .   A
N466       H477 0.028       .   A
N466       H478 0.037       .   A
C467       H468 0.046       .   A
C467       H469 0.035       .   A
C467       H470 0.037       .   A
C471       H472 0.035       .   A
C471       H473 0.000       .   A
C471       H474 0.039       .   A
C437       C438 0.042       .   A
C437       C442 0.050       .   A
C438       C439 0.050       .   A
C438      Cl444 0.072       .   A
C439       C440 0.058       .   A
C439       C443 0.058       .   A
C440       C441 0.042       .   A
C441       C442 0.051       .   A
C441       C446 0.059       .   A
C442       N445 0.048       .   A
C443       C450 0.000       .   A
C443       H454 0.052       .   A
C443       H455 0.052       .   A
N445       H456 0.028       .   A
N445       H457 0.037       .   A
C446       H447 0.046       .   A
C446       H448 0.035       .   A
C446       H449 0.037       .   A
C450       H451 0.035       .   A
C450       H452 0.000       .   A
C450       H453 0.039       .   A
C416       C417 0.042       .   A
C416       C421 0.050       .   A
C417       C418 0.050       .   A
C417      Cl423 0.072       .   A
C418       C419 0.058       .   A
C418       C422 0.058       .   A
C419       C420 0.042       .   A
C420       C421 0.051       .   A
C420       C425 0.059       .   A
C421       N424 0.048       .   A
C422       C429 0.000       .   A
C422       H433 0.052       .   A
C422       H434 0.052       .   A
N424       H435 0.028       .   A
N424       H436 0.037       .   A
C425       H426 0.046       .   A
C425       H427 0.035       .   A
C425       H428 0.037       .   A
C429       H430 0.035       .   A
C429       H431 0.000       .   A
C429       H432 0.039       .   A
C395       C396 0.042       .   A
C395       C400 0.050       .   A
C396       C397 0.050       .   A
C396      Cl402 0.072       .   A
C397       C398 0.058       .   A
C397       C401 0.058       .   A
C398       C399 0.042       .   A
C399       C400 0.051       .   A
C399       C404 0.059       .   A
C400       N403 0.048       .   A
C401       C408 0.000       .   A
C401       H412 0.052       .   A
C401       H413 0.052       .   A
N403       H414 0.028       .   A
N403       H415 0.037       .   A
C404       H405 0.046       .   A
C404       H406 0.035       .   A
C404       H407 0.037       .   A
C408       H409 0.035       .   A
C408       H410 0.000       .   A
C408       H411 0.039       .   A
C374       C375 0.042       .   A
C374       C379 0.050       .   A
C375       C376 0.050       .   A
C375      Cl381 0.072       .   A
C376       C377 0.058       .   A
C376       C380 0.058       .   A
C377       C378 0.042       .   A
C378       C379 0.051       .   A
C378       C383 0.059       .   A
C379       N382 0.048       .   A
C380       C387 0.000       .   A
C380       H391 0.052       .   A
C380       H392 0.052       .   A
N382       H393 0.028       .   A
N382       H394 0.037       .   A
C383       H384 0.046       .   A
C383       H385 0.035       .   A
C383       H386 0.037       .   A
C387       H388 0.035       .   A
C387       H389 0.000       .   A
C387       H390 0.039       .   A
C353       C354 0.042       .   A
C353       C358 0.050       .   A
C354       C355 0.050       .   A
C354      Cl360 0.072       .   A
C355       C356 0.058       .   A
C355       C359 0.058       .   A
C356       C357 0.042       .   A
C357       C358 0.051       .   A
C357       C362 0.059       .   A
C358       N361 0.048       .   A
C359       C366 0.000       .   A
C359       H370 0.052       .   A
C359       H371 0.052       .   A
N361       H372 0.028       .   A
N361       H373 0.037       .   A
C362       H363 0.046       .   A
C362       H364 0.035       .   A
C362       H365 0.037       .   A
C366       H367 0.035       .   A
C366       H368 0.000       .   A
C366       H369 0.039       .   A
C332       C333 0.042       .   A
C332       C337 0.050       .   A
C333       C334 0.050       .   A
C333      Cl339 0.072       .   A
C334       C335 0.058       .   A
C334       C338 0.058       .   A
C335       C336 0.042       .   A
C336       C337 0.051       .   A
C336       C341 0.059       .   A
C337       N340 0.048       .   A
C338       C345 0.000       .   A
C338       H349 0.052       .   A
C338       H350 0.052       .   A
N340       H351 0.028       .   A
N340       H352 0.037       .   A
C341       H342 0.046       .   A
C341       H343 0.035       .   A
C341       H344 0.037       .   A
C345       H346 0.035       .   A
C345       H347 0.000       .   A
C345       H348 0.039       .   A
C311       C312 0.042       .   A
C311       C316 0.050       .   A
C312       C313 0.050       .   A
C312      Cl318 0.072       .   A
C313       C314 0.058       .   A
C313       C317 0.058       .   A
C314       C315 0.042       .   A
C315       C316 0.051       .   A
C315       C320 0.059       .   A
C316       N319 0.048       .   A
C317       C324 0.000       .   A
C317       H328 0.052       .   A
C317       H329 0.052       .   A
N319       H330 0.028       .   A
N319       H331 0.037       .   A
C320       H321 0.046       .   A
C320       H322 0.035       .   A
C320       H323 0.037       .   A
C324       H325 0.035       .   A
C324       H326 0.000       .   A
C324       H327 0.039       .   A
C290       C291 0.042       .   A
C290       C295 0.050       .   A
C291       C292 0.050       .   A
C291      Cl297 0.072       .   A
C292       C293 0.058       .   A
C292       C296 0.058       .   A
C293       C294 0.042       .   A
C294       C295 0.051       .   A
C294       C299 0.059       .   A
C295       N298 0.048       .   A
C296       C303 0.000       .   A
C296       H307 0.052       .   A
C296       H308 0.052       .   A
N298       H309 0.028       .   A
N298       H310 0.037       .   A
C299       H300 0.046       .   A
C299       H301 0.035       .   A
C299       H302 0.037       .   A
C303       H304 0.035       .   A
C303       H305 0.000       .   A
C303       H306 0.039       .   A
C269       C270 0.042       .   A
C269       C274 0.050       .   A
C270       C271 0.050       .   A
C270      Cl276 0.072       .   A
C271       C272 0.058       .   A
C271       C275 0.058       .   A
C272       C273 0.042       .   A
C273       C274 0.051       .   A
C273       C278 0.059       .   A
C274       N277 0.048       .   A
C275       C282 0.000       .   A
C275       H286 0.052       .   A
C275       H287 0.052       .   A
N277       H288 0.028       .   A
N277       H289 0.037       .   A
C278       H279 0.046       .   A
C278       H280 0.035       .   A
C278       H281 0.037       .   A
C282       H283 0.035       .   A
C282       H284 0.000       .   A
C282       H285 0.039       .   A
C248       C249 0.042       .   A
C248       C253 0.050       .   A
C249       C250 0.050       .   A
C249      Cl255 0.072       .   A
C250       C251 0.058       .   A
C250       C254 0.058       .   A
C251       C252 0.042       .   A
C252       C253 0.051       .   A
C252       C257 0.059       .   A
C253       N256 0.048       .   A
C254       C261 0.000       .   A
C254       H265 0.052       .   A
C254       H266 0.052       .   A
N256       H267 0.028       .   A
N256       H268 0.037       .   A
C257       H258 0.046       .   A
C257       H259 0.035       .   A
C257       H260 0.037       .   A
C261       H262 0.035       .   A
C261       H263 0.000       .   A
C261       H264 0.039       .   A
C227       C228 0.042       .   A
C227       C232 0.050       .   A
C228       C229 0.050       .   A
C228      Cl234 0.072       .   A
C229       C230 0.058       .   A
C229       C233 0.058       .   A
C230       C231 0.042       .   A
C231       C232 0.051       .   A
C231       C236 0.059       .   A
C232       N235 0.048       .   A
C233       C240 0.000       .   A
C233       H244 0.052       .   A
C233       H245 0.052       .   A
N235       H246 0.028       .   A
N235       H247 0.037       .   A
C236       H237 0.046       .   A
C236       H238 0.035       .   A
C236       H239 0.037       .   A
C240       H241 0.035       .   A
C240       H242 0.000       .   A
C240       H243 0.039       .   A
C206       C207 0.042       .   A
C206       C211 0.050       .   A
C207       C208 0.050       .   A
C207      Cl213 0.072       .   A
C208       C209 0.058       .   A
C208       C212 0.058       .   A
C209       C210 0.042       .   A
C210       C211 0.051       .   A
C210       C215 0.059       .   A
C211       N214 0.048       .   A
C212       C219 0.000       .   A
C212       H223 0.052       .   A
C212       H224 0.052       .   A
N214       H225 0.028       .   A
N214       H226 0.037       .   A
C215       H216 0.046       .   A
C215       H217 0.035       .   A
C215       H218 0.037       .   A
C219       H220 0.035       .   A
C219       H221 0.000       .   A
C219       H222 0.039       .   A
C185       C186 0.042       .   A
C185       C190 0.050       .   A
C186       C187 0.050       .   A
C186      Cl192 0.072       .   A
C187       C188 0.058       .   A
C187       C191 0.058       .   A
C188       C189 0.042       .   A
C189       C190 0.051       .   A
C189       C194 0.059       .   A
C190       N193 0.048       .   A
C191       C198 0.000       .   A
C191       H202 0.052       .   A
C191       H203 0.052       .   A
N193       H204 0.028       .   A
N193       H205 0.037       .   A
C194       H195 0.046       .   A
C194       H196 0.035       .   A
C194       H197 0.037       .   A
C198       H199 0.035       .   A
C198       H200 0.000       .   A
C198       H201 0.039       .   A
