data_pcu_v1-6c_Zn_1_Ch_1-3_fer_tobacco
_audit_creation_date              2021-04-07
_audit_creation_method            'tobacco_3.0'
_symmetry_space_group_name_H-M    'P1'
_symmetry_Int_Tables_number       1
_symmetry_cell_setting            triclinic
loop_
_symmetry_equiv_pos_as_xyz
  x,y,z
_cell_length_a                    53.97516010407921
_cell_length_b                    53.97516010407921
_cell_length_c                    53.97516010407921
_cell_angle_alpha                 90.0
_cell_angle_beta                  90.0
_cell_angle_gamma                 90.0
loop_
_atom_site_label
_atom_site_type_symbol
_atom_site_fract_x
_atom_site_fract_y
_atom_site_fract_z
_atom_site_charge
Zn1       Zn   -0.0207725183    0.0207725183   -0.0207725183          1.4972
Zn2       Zn    0.0207725183    0.0207725183    0.0207725183          1.4936
Zn3       Zn   -0.0207725183   -0.0207725183    0.0207725183          1.4911
Zn4       Zn    0.0207725183   -0.0207725183   -0.0207725183          1.4948
O5         O    0.0000000000    0.0000000000    0.0000000000         -2.2615
O6         O   -0.0152662817    0.0555181308   -0.0152662817         -1.1678
O7         O    0.0152662817    0.0152662817    0.0555181308          -1.166
O8         O   -0.0555181308   -0.0152662817    0.0152662817         -1.1612
O9         O    0.0152662817    0.0555181308    0.0152662817          -1.168
O10        O   -0.0555181308    0.0152662817   -0.0152662817         -1.1639
O11        O   -0.0152662817   -0.0152662817    0.0555181308         -1.1698
O12        O    0.0152662817   -0.0555181308   -0.0152662817         -1.1637
O13        O    0.0555181308    0.0152662817    0.0152662817         -1.1713
O14        O   -0.0152662817   -0.0555181308    0.0152662817         -1.1652
O15        O    0.0555181308   -0.0152662817   -0.0152662817         -1.1698
O16        O    0.0152662817   -0.0152662817   -0.0555181308         -1.1689
O17        O   -0.0152662817    0.0152662817   -0.0555181308         -1.1668
C18        C   -0.0000000000    0.0663786822   -0.0000000000          0.3511
C19        C    0.0000000000    0.0000000000    0.0663786822           0.356
C20        C   -0.0663786822    0.0000000000   -0.0000000000          0.3456
C21        C    0.0000000000   -0.0663786822    0.0000000000          0.3494
C22        C    0.0663786822   -0.0000000000    0.0000000000          0.3607
C23        C   -0.0000000000   -0.0000000000   -0.0663786822          0.3512
Zn24      Zn    0.9792274817    0.0207725183    0.4792274817          1.4972
Zn25      Zn    1.0207725183   -0.0207725183    0.4792274817          1.4936
Zn26      Zn    1.0207725183    0.0207725183    0.5207725183          1.4911
Zn27      Zn    0.9792274817   -0.0207725183    0.5207725183          1.4948
O28        O    1.0000000000    0.0000000000    0.5000000000         -2.2615
O29        O    0.9847337183    0.0152662817    0.4444818692         -1.1678
O30        O    1.0555181308   -0.0152662817    0.4847337183          -1.166
O31        O    1.0152662817    0.0555181308    0.5152662817         -1.1612
O32        O    1.0152662817   -0.0152662817    0.4444818692          -1.168
O33        O    0.9847337183    0.0555181308    0.4847337183         -1.1639
O34        O    1.0555181308    0.0152662817    0.5152662817         -1.1698
O35        O    0.9847337183   -0.0152662817    0.5555181308         -1.1637
O36        O    1.0152662817   -0.0555181308    0.4847337183         -1.1713
O37        O    1.0152662817    0.0152662817    0.5555181308         -1.1652
O38        O    0.9847337183   -0.0555181308    0.5152662817         -1.1698
O39        O    0.9444818692   -0.0152662817    0.5152662817         -1.1689
O40        O    0.9444818692    0.0152662817    0.4847337183         -1.1668
C41        C    1.0000000000    0.0000000000    0.4336213178          0.3511
C42        C    1.0663786822    0.0000000000    0.5000000000           0.356
C43        C    1.0000000000    0.0663786822    0.5000000000          0.3456
C44        C    1.0000000000    0.0000000000    0.5663786822          0.3494
C45        C    1.0000000000   -0.0663786822    0.5000000000          0.3607
C46        C    0.9336213178    0.0000000000    0.5000000000          0.3512
Zn47      Zn    1.0207725183    0.4792274817   -0.0207725183          1.4972
Zn48      Zn    0.9792274817    0.4792274817    0.0207725183          1.4936
Zn49      Zn    1.0207725183    0.5207725183    0.0207725183          1.4911
Zn50      Zn    0.9792274817    0.5207725183   -0.0207725183          1.4948
O51        O    1.0000000000    0.5000000000    0.0000000000         -2.2615
O52        O    1.0152662817    0.4444818692   -0.0152662817         -1.1678
O53        O    0.9847337183    0.4847337183    0.0555181308          -1.166
O54        O    1.0555181308    0.5152662817    0.0152662817         -1.1612
O55        O    0.9847337183    0.4444818692    0.0152662817          -1.168
O56        O    1.0555181308    0.4847337183   -0.0152662817         -1.1639
O57        O    1.0152662817    0.5152662817    0.0555181308         -1.1698
O58        O    0.9847337183    0.5555181308   -0.0152662817         -1.1637
O59        O    0.9444818692    0.4847337183    0.0152662817         -1.1713
O60        O    1.0152662817    0.5555181308    0.0152662817         -1.1652
O61        O    0.9444818692    0.5152662817   -0.0152662817         -1.1698
O62        O    0.9847337183    0.5152662817   -0.0555181308         -1.1689
O63        O    1.0152662817    0.4847337183   -0.0555181308         -1.1668
C64        C    1.0000000000    0.4336213178    0.0000000000          0.3511
C65        C    1.0000000000    0.5000000000    0.0663786822           0.356
C66        C    1.0663786822    0.5000000000    0.0000000000          0.3456
C67        C    1.0000000000    0.5663786822    0.0000000000          0.3494
C68        C    0.9336213178    0.5000000000    0.0000000000          0.3607
C69        C    1.0000000000    0.5000000000   -0.0663786822          0.3512
Zn70      Zn    0.9792274817    0.4792274817    0.5207725183          1.4972
Zn71      Zn    1.0207725183    0.4792274817    0.4792274817          1.4936
Zn72      Zn    0.9792274817    0.5207725183    0.4792274817          1.4911
Zn73      Zn    1.0207725183    0.5207725183    0.5207725183          1.4948
O74        O    1.0000000000    0.5000000000    0.5000000000         -2.2615
O75        O    0.9847337183    0.4444818692    0.5152662817         -1.1678
O76        O    1.0152662817    0.4847337183    0.4444818692          -1.166
O77        O    0.9444818692    0.5152662817    0.4847337183         -1.1612
O78        O    1.0152662817    0.4444818692    0.4847337183          -1.168
O79        O    0.9444818692    0.4847337183    0.5152662817         -1.1639
O80        O    0.9847337183    0.5152662817    0.4444818692         -1.1698
O81        O    1.0152662817    0.5555181308    0.5152662817         -1.1637
O82        O    1.0555181308    0.4847337183    0.4847337183         -1.1713
O83        O    0.9847337183    0.5555181308    0.4847337183         -1.1652
O84        O    1.0555181308    0.5152662817    0.5152662817         -1.1698
O85        O    1.0152662817    0.5152662817    0.5555181308         -1.1689
O86        O    0.9847337183    0.4847337183    0.5555181308         -1.1668
C87        C    1.0000000000    0.4336213178    0.5000000000          0.3511
C88        C    1.0000000000    0.5000000000    0.4336213178           0.356
C89        C    0.9336213178    0.5000000000    0.5000000000          0.3456
C90        C    1.0000000000    0.5663786822    0.5000000000          0.3494
C91        C    1.0663786822    0.5000000000    0.5000000000          0.3607
C92        C    1.0000000000    0.5000000000    0.5663786822          0.3512
Zn93      Zn    0.4792274817    0.9792274817   -0.0207725183          1.4972
Zn94      Zn    0.4792274817    1.0207725183    0.0207725183          1.4936
Zn95      Zn    0.5207725183    0.9792274817    0.0207725183          1.4911
Zn96      Zn    0.5207725183    1.0207725183   -0.0207725183          1.4948
O97        O    0.5000000000    1.0000000000    0.0000000000         -2.2615
O98        O    0.4444818692    0.9847337183   -0.0152662817         -1.1678
O99        O    0.4847337183    1.0152662817    0.0555181308          -1.166
O100       O    0.5152662817    0.9444818692    0.0152662817         -1.1612
O101       O    0.4444818692    1.0152662817    0.0152662817          -1.168
O102       O    0.4847337183    0.9444818692   -0.0152662817         -1.1639
O103       O    0.5152662817    0.9847337183    0.0555181308         -1.1698
O104       O    0.5555181308    1.0152662817   -0.0152662817         -1.1637
O105       O    0.4847337183    1.0555181308    0.0152662817         -1.1713
O106       O    0.5555181308    0.9847337183    0.0152662817         -1.1652
O107       O    0.5152662817    1.0555181308   -0.0152662817         -1.1698
O108       O    0.5152662817    1.0152662817   -0.0555181308         -1.1689
O109       O    0.4847337183    0.9847337183   -0.0555181308         -1.1668
C110       C    0.4336213178    1.0000000000    0.0000000000          0.3511
C111       C    0.5000000000    1.0000000000    0.0663786822           0.356
C112       C    0.5000000000    0.9336213178    0.0000000000          0.3456
C113       C    0.5663786822    1.0000000000    0.0000000000          0.3494
C114       C    0.5000000000    1.0663786822    0.0000000000          0.3607
C115       C    0.5000000000    1.0000000000   -0.0663786822          0.3512
Zn116     Zn    0.4792274817    1.0207725183    0.4792274817          1.4972
Zn117     Zn    0.4792274817    0.9792274817    0.5207725183          1.4936
Zn118     Zn    0.5207725183    0.9792274817    0.4792274817          1.4911
Zn119     Zn    0.5207725183    1.0207725183    0.5207725183          1.4948
O120       O    0.5000000000    1.0000000000    0.5000000000         -2.2615
O121       O    0.4444818692    1.0152662817    0.4847337183         -1.1678
O122       O    0.4847337183    0.9444818692    0.5152662817          -1.166
O123       O    0.5152662817    0.9847337183    0.4444818692         -1.1612
O124       O    0.4444818692    0.9847337183    0.5152662817          -1.168
O125       O    0.4847337183    1.0152662817    0.4444818692         -1.1639
O126       O    0.5152662817    0.9444818692    0.4847337183         -1.1698
O127       O    0.5555181308    1.0152662817    0.5152662817         -1.1637
O128       O    0.4847337183    0.9847337183    0.5555181308         -1.1713
O129       O    0.5555181308    0.9847337183    0.4847337183         -1.1652
O130       O    0.5152662817    1.0152662817    0.5555181308         -1.1698
O131       O    0.5152662817    1.0555181308    0.5152662817         -1.1689
O132       O    0.4847337183    1.0555181308    0.4847337183         -1.1668
C133       C    0.4336213178    1.0000000000    0.5000000000          0.3511
C134       C    0.5000000000    0.9336213178    0.5000000000           0.356
C135       C    0.5000000000    1.0000000000    0.4336213178          0.3456
C136       C    0.5663786822    1.0000000000    0.5000000000          0.3494
C137       C    0.5000000000    1.0000000000    0.5663786822          0.3607
C138       C    0.5000000000    1.0663786822    0.5000000000          0.3512
Zn139     Zn    0.4792274817    0.5207725183   -0.0207725183          1.4972
Zn140     Zn    0.4792274817    0.4792274817    0.0207725183          1.4936
Zn141     Zn    0.5207725183    0.4792274817   -0.0207725183          1.4911
Zn142     Zn    0.5207725183    0.5207725183    0.0207725183          1.4948
O143       O    0.5000000000    0.5000000000    0.0000000000         -2.2615
O144       O    0.4444818692    0.5152662817   -0.0152662817         -1.1678
O145       O    0.4847337183    0.4444818692    0.0152662817          -1.166
O146       O    0.5152662817    0.4847337183   -0.0555181308         -1.1612
O147       O    0.4444818692    0.4847337183    0.0152662817          -1.168
O148       O    0.4847337183    0.5152662817   -0.0555181308         -1.1639
O149       O    0.5152662817    0.4444818692   -0.0152662817         -1.1698
O150       O    0.5555181308    0.5152662817    0.0152662817         -1.1637
O151       O    0.4847337183    0.4847337183    0.0555181308         -1.1713
O152       O    0.5555181308    0.4847337183   -0.0152662817         -1.1652
O153       O    0.5152662817    0.5152662817    0.0555181308         -1.1698
O154       O    0.5152662817    0.5555181308    0.0152662817         -1.1689
O155       O    0.4847337183    0.5555181308   -0.0152662817         -1.1668
C156       C    0.4336213178    0.5000000000    0.0000000000          0.3511
C157       C    0.5000000000    0.4336213178    0.0000000000           0.356
C158       C    0.5000000000    0.5000000000   -0.0663786822          0.3456
C159       C    0.5663786822    0.5000000000    0.0000000000          0.3494
C160       C    0.5000000000    0.5000000000    0.0663786822          0.3607
C161       C    0.5000000000    0.5663786822    0.0000000000          0.3512
Zn162     Zn    0.4792274817    0.5207725183    0.4792274817          1.4972
Zn163     Zn    0.4792274817    0.4792274817    0.5207725183          1.4936
Zn164     Zn    0.5207725183    0.4792274817    0.4792274817          1.4911
Zn165     Zn    0.5207725183    0.5207725183    0.5207725183          1.4948
O166       O    0.5000000000    0.5000000000    0.5000000000         -2.2615
O167       O    0.4444818692    0.5152662817    0.4847337183         -1.1678
O168       O    0.4847337183    0.4444818692    0.5152662817          -1.166
O169       O    0.5152662817    0.4847337183    0.4444818692         -1.1612
O170       O    0.4444818692    0.4847337183    0.5152662817          -1.168
O171       O    0.4847337183    0.5152662817    0.4444818692         -1.1639
O172       O    0.5152662817    0.4444818692    0.4847337183         -1.1698
O173       O    0.5555181308    0.5152662817    0.5152662817         -1.1637
O174       O    0.4847337183    0.4847337183    0.5555181308         -1.1713
O175       O    0.5555181308    0.4847337183    0.4847337183         -1.1652
O176       O    0.5152662817    0.5152662817    0.5555181308         -1.1698
O177       O    0.5152662817    0.5555181308    0.5152662817         -1.1689
O178       O    0.4847337183    0.5555181308    0.4847337183         -1.1668
C179       C    0.4336213178    0.5000000000    0.5000000000          0.3511
C180       C    0.5000000000    0.4336213178    0.5000000000           0.356
C181       C    0.5000000000    0.5000000000    0.4336213178          0.3456
C182       C    0.5663786822    0.5000000000    0.5000000000          0.3494
C183       C    0.5000000000    0.5000000000    0.5663786822          0.3607
C184       C    0.5000000000    0.5663786822    0.5000000000          0.3512
C1450      C    0.5000000000    0.5000000000   -0.0949103252         -0.4149
C1451      C    0.4769073767    0.4966559248   -0.1035895838         -0.4166
C1452      C    0.4730687976    0.4931590564   -0.1275549010         -0.4204
C1453      C    0.4914912882    0.4917108285   -0.1441329701          0.5764
C1454      C    0.5150321141    0.4916206156   -0.1349544797          0.5753
C1455      C    0.5193906289    0.4980808353   -0.1110533345         -0.4185
C1456      C    0.4855903562    0.4926469217   -0.1686571545          0.5765
H1457      H    0.4537257189    0.4928195991   -0.1328713382         -0.4197
F1458      F    0.4564184981    0.4970726917   -0.0894049245         -0.4143
C1459      C    0.5433165216    0.5023512213   -0.1045639149         -0.4161
C1460      C    0.5347310270    0.4841339600   -0.1485420043          0.5671
C1461      C    0.5579544295    0.4865402589   -0.1409125560           0.568
C1462      C    0.5622707347    0.4967627459   -0.1191722171         -0.4227
H1463      H    0.5324875700    0.4754303357   -0.1665375702          0.5592
H1464      H    0.5732522807    0.4807640440   -0.1526979216          0.5617
H1465      H    0.5811961494    0.4998297980   -0.1129230393          -0.421
H1466      H    0.5486325685    0.5105126982   -0.0870030313         -0.4088
C1467      C    0.4628668254    0.4868683989   -0.1779191615          0.5727
C1468      C    0.4573837900    0.4888774078   -0.2020882062          0.5736
C1469      C    0.4750217307    0.4965518404   -0.2174538347         -0.4218
C1470      C    0.4969969077    0.5027265385   -0.2089856097         -0.4176
C1471      C    0.4979495802    0.5049360591   -0.3141794420         -0.4206
H1472      H    0.4481283848    0.4796010220   -0.1663709590           0.568
H1473      H    0.5199525220    0.5091942036   -0.1801594002         -0.4123
O1474      O    0.5130662301    0.5097191063   -0.2270036232         -0.4136
C1475      C    0.4759620505    0.4991993470   -0.2416808267         -0.4207
C1476      C    0.4594333057    0.4955949014   -0.2593965007          0.5765
C1477      C    0.4985981284    0.5061851732   -0.2472786403         -0.4165
C1478      C    0.5059060518    0.5083309564   -0.2705203184         -0.4163
C1479      C    0.4667149941    0.4982032948   -0.2829664686         -0.4228
C1480      C    0.4904477481    0.5039785730   -0.2897835398         -0.4198
H1481      H    0.5251647457    0.5128686101   -0.2717146540         -0.4137
H1482      H    0.4518444351    0.4951189301   -0.2959493987          0.5749
C1483      C    0.5020507135    0.5016345848   -0.1851668527         -0.4178
H1484      H    0.4391556840    0.4837361306   -0.2089301177          0.5701
H1485      H    0.4404869385    0.4904026719   -0.2549606606          0.5736
C1486      C    0.4820650422    0.4981747251   -0.3324826213          0.5739
C1487      C    0.4878367537    0.4985191177   -0.3565795117          0.5727
C1488      C    0.5104560073    0.5054474005   -0.3635597900          0.5768
C1489      C    0.5266970122    0.5120534892   -0.3463369620         -0.4179
C1490      C    0.5209448534    0.5119904121   -0.3222587472         -0.4165
H1491      H    0.4635136636    0.4917337171   -0.3288368222          0.5699
C1492      C    0.5619630356    0.5055604528   -0.3059388450          0.5762
H1493      H    0.5450953934    0.5180001393   -0.3520713122         -0.4143
C1494      C    0.5165424244    0.5059411034   -0.3875312984          0.5757
C1495      C    0.4772329390    0.4931248305   -0.3979325218           0.567
C1496      C    0.5000000000    0.5000000000   -0.4050896748           0.571
C1497      C    0.4712678561    0.4921925706   -0.3739221470          0.5677
H1498      H    0.5351854566    0.5116467834   -0.3926098464         -0.4209
H1499      H    0.4633481080    0.4878993810   -0.4115645426          0.5629
H1500      H    0.4527288752    0.4863728119   -0.3686376514          0.5642
H1501      H    0.5696600060    0.5076286659   -0.2872986108         -0.4217
H1502      H    0.5755612796    0.5119571616   -0.3194858623         -0.4199
H1503      H    0.5575174681    0.4860654259   -0.3091663446            0.56
O1504      O    0.5397442131    0.5206823257   -0.3076986799         -0.4097
C1395      C    0.5000000000    0.5000000000    0.4050896748         -0.4149
C1396      C    0.5232722393    0.5016896657    0.3964104162         -0.4166
C1397      C    0.5273502920    0.5049040497    0.3724450990         -0.4204
C1398      C    0.5090778751    0.5076616399    0.3558670299          0.5764
C1399      C    0.4856033486    0.5094294733    0.3650455203          0.5753
C1400      C    0.4807954726    0.5032963325    0.3889466655         -0.4185
C1401      C    0.5148970805    0.5063073441    0.3313428455          0.5765
H1402      H    0.5466683712    0.5038639841    0.3671286618         -0.4197
F1403      F    0.5436793053    0.4998136333    0.4105950755         -0.4143
C1404      C    0.4566260612    0.5007421023    0.3954360851         -0.4161
C1405      C    0.4664881389    0.5183011100    0.3514579957          0.5671
C1406      C    0.4431522922    0.5175561568    0.3590874440           0.568
C1407      C    0.4381183663    0.5076673084    0.3808277829         -0.4227
H1408      H    0.4693462328    0.5268226987    0.3334624298          0.5592
H1409      H    0.4283050411    0.5244080213    0.3473020784          0.5617
H1410      H    0.4190224820    0.5059569475    0.3870769607          -0.421
H1411      H    0.4507418327    0.4929802781    0.4129969687         -0.4088
C1412      C    0.5379746788    0.5104515728    0.3220808385          0.5727
C1413      C    0.5433005794    0.5080568750    0.2979117938          0.5736
C1414      C    0.5251605082    0.5016590877    0.2825461653         -0.4218
C1415      C    0.5028011233    0.4970663532    0.2910143903         -0.4176
C1416      C    0.5016933922    0.4949303527    0.1858205580         -0.4206
H1417      H    0.5531936116    0.5166499986    0.3336290410           0.568
H1418      H    0.4794429137    0.4922512764    0.3198405998         -0.4123
O1419      O    0.4862742803    0.4912368947    0.2729963768         -0.4136
C1420      C    0.5240338813    0.4990853347    0.2583191733         -0.4207
C1421      C    0.5407774932    0.5015025428    0.2406034993          0.5765
C1422      C    0.5009574640    0.4937306401    0.2527213597         -0.4165
C1423      C    0.4935151877    0.4921111793    0.2294796816         -0.4163
C1424      C    0.5333284130    0.4994197786    0.2170335314         -0.4228
C1425      C    0.5092443894    0.4953507178    0.2102164602         -0.4198
H1426      H    0.4739820561    0.4889577111    0.2282853460         -0.4137
H1427      H    0.5483809879    0.5014364141    0.2040506013          0.5749
C1428      C    0.4978379984    0.4985157350    0.3148331473         -0.4178
H1429      H    0.5618487668    0.5118858859    0.2910698823          0.5701
H1430      H    0.5600457466    0.5053311830    0.2450393394          0.5736
C1431      C    0.5180194398    0.5005423358    0.1675173787          0.5739
C1432      C    0.5122378609    0.5006101923    0.1434204883          0.5727
C1433      C    0.4891823265    0.4953116955    0.1364402100          0.5768
C1434      C    0.4725117835    0.4898799697    0.1536630380         -0.4179
C1435      C    0.4782538089    0.4895329068    0.1777412528         -0.4165
H1436      H    0.5369827148    0.5056447309    0.1711631778          0.5699
C1437      C    0.4377982347    0.4988700452    0.1940611550          0.5762
H1438      H    0.4537363517    0.4852597704    0.1479286878         -0.4143
C1439      C    0.4830762002    0.4952530518    0.1124687016          0.5757
C1440      C    0.5231991803    0.5052349837    0.1020674782           0.567
C1441      C    0.5000000000    0.5000000000    0.0949103252           0.571
C1442      C    0.5292155385    0.5057397171    0.1260778530          0.5677
H1443      H    0.4640739147    0.4908906471    0.1073901536         -0.4209
H1444      H    0.5374211379    0.5094575156    0.0884354574          0.5629
H1445      H    0.5481221684    0.5102233266    0.1313623486          0.5642
H1446      H    0.4299734295    0.4973556862    0.2127013892         -0.4217
H1447      H    0.4237786547    0.4934588066    0.1805141377         -0.4199
H1448      H    0.4436219855    0.5179986382    0.1908336554            0.56
O1449      O    0.4588827524    0.4822030052    0.1923013201         -0.4097
C1340      C    0.5000000000    0.9050896748    0.5000000000         -0.4149
C1341      C    0.4856582107    0.8964104162    0.5184055745         -0.4166
C1342      C    0.4853110989    0.8724450990    0.5235865292         -0.4204
C1343      C    0.4996031206    0.8558670299    0.5118722798          0.5764
C1344      C    0.5166467160    0.8650455203    0.4956336074          0.5753
C1345      C    0.5153165442    0.8889466655    0.4879549530         -0.4185
C1346      C    0.4946981848    0.8313428455    0.5152838592          0.5765
H1347      H    0.4715931162    0.8671286618    0.5372278954         -0.4197
F1348      F    0.4705899674    0.9105950755    0.5322949907         -0.4143
C1349      C    0.5296178722    0.8954360851    0.4683040865         -0.4161
C1350      C    0.5360415355    0.8514579957    0.4873911469          0.5671
C1351      C    0.5511271409    0.8590874440    0.4695714609           0.568
C1352      C    0.5471608754    0.8808277829    0.4592081376         -0.4227
H1353      H    0.5404511211    0.8334624298    0.4952232431          0.5592
H1354      H    0.5661626600    0.8473020784    0.4631432361          0.5617
H1355      H    0.5586885180    0.8870769607    0.4438884905          -0.421
H1356      H    0.5278001685    0.9129969687    0.4587350733         -0.4088
C1357      C    0.4823086730    0.8220808385    0.5351898927          0.5727
C1358      C    0.4769621131    0.7979117938    0.5375381030          0.5736
C1359      C    0.4843700907    0.7825461653    0.5197866035         -0.4218
C1360      C    0.4959453991    0.7910143903    0.5001130798         -0.4176
C1361      C    0.4951023521    0.6858205580    0.4978594521         -0.4206
H1362      H    0.4767103265    0.8336290410    0.5506396473           0.568
H1363      H    0.5080250423    0.8198405998    0.4795492002         -0.4123
O1364      O    0.5026940991    0.7729963768    0.4839398249         -0.4136
C1365      C    0.4832147957    0.7583191733    0.5172255908         -0.4207
C1366      C    0.4737881695    0.7406034993    0.5312730159          0.5765
C1367      C    0.4947050776    0.7527213597    0.4965092395         -0.4165
C1368      C    0.4984905179    0.7294796816    0.4899001116         -0.4163
C1369      C    0.4772342937    0.7170335314    0.5243483549         -0.4228
C1370      C    0.4903540534    0.7102164602    0.5037457008         -0.4198
H1371      H    0.5092400712    0.7282853460    0.4732888294         -0.4137
H1372      H    0.4686436016    0.7040506013    0.5368722057          0.5749
C1373      C    0.5003472074    0.8148331473    0.4974006269         -0.4178
H1374      H    0.4673740254    0.7910698823    0.5538710499          0.5701
H1375      H    0.4637172541    0.7450393394    0.5481401656          0.5736
C1376      C    0.4883267994    0.6675173787    0.5137379303          0.5739
C1377      C    0.4922516920    0.6434204883    0.5094921703          0.5727
C1378      C    0.5037696908    0.6364402100    0.4888289798          0.5768
C1379      C    0.5109098987    0.6536630380    0.4728156079         -0.4179
C1380      C    0.5068042788    0.6777412528    0.4768449000         -0.4165
H1381      H    0.4794056786    0.6711631778    0.5312323247          0.5699
C1382      C    0.5408458607    0.6940611550    0.4530750378          0.5762
H1383      H    0.5200630342    0.6479286878    0.4557837793         -0.4143
C1384      C    0.5078181873    0.6124687016    0.4842575585          0.5757
C1385      C    0.4883385959    0.6020674782    0.5207272448           0.567
C1386      C    0.5000000000    0.5949103252    0.5000000000           0.571
C1387      C    0.4846813565    0.6260778530    0.5255309852          0.5677
H1388      H    0.5173146906    0.6073901536    0.4672301144         -0.4209
H1389      H    0.4819418143    0.5884354574    0.5341128728          0.5629
H1390      H    0.4753389181    0.6313623486    0.5425686567          0.5642
H1391      H    0.5449656620    0.7127013892    0.4462524213         -0.4217
H1392      H    0.5462247305    0.6805141377    0.4390430072         -0.4199
H1393      H    0.5511407966    0.6908336554    0.4702166083            0.56
O1394      O    0.5143453630    0.6923013201    0.4575550753         -0.4097
C1285      C    0.5000000000    1.0949103252    0.5000000000         -0.4149
C1286      C    0.5025492651    1.1035895838    0.5231938211         -0.4166
C1287      C    0.5001258524    1.1275549010    0.5277861897         -0.4204
C1288      C    0.4941074451    1.1441329701    0.5103143753          0.5764
C1289      C    0.4881211510    1.1349544797    0.4875472299          0.5753
C1290      C    0.4932830810    1.1110533345    0.4817089453         -0.4185
C1291      C    0.4964923525    1.1686571545    0.5157924667          0.5765
H1292      H    0.5046442959    1.1328713382    0.5465971862         -0.4197
F1293      F    0.5080869247    1.0894049245    0.5429245628         -0.4143
C1294      C    0.4914217683    1.1045639149    0.4574763216         -0.4161
C1295      C    0.4759371218    1.1485420043    0.4703528525          0.5671
C1296      C    0.4724472291    1.1409125560    0.4472674167           0.568
C1297      C    0.4812619677    1.1191722171    0.4405272301         -0.4227
H1298      H    0.4680733633    1.1665375702    0.4747057225          0.5592
H1299      H    0.4630219053    1.1526979216    0.4339050748          0.5617
H1300      H    0.4794887546    1.1129230393    0.4214370797          -0.421
H1301      H    0.4979907342    1.0870030313    0.4502847469         -0.4088
C1302      C    0.4965923527    1.1779191615    0.5392390054          0.5727
C1303      C    0.4999112260    1.2020882062    0.5440436775          0.5736
C1304      C    0.5029210148    1.2174538347    0.5250453871         -0.4218
C1305      C    0.5033920753    1.2089856097    0.5022240505         -0.4176
C1306      C    0.5052923760    1.3141794420    0.5007481023         -0.4206
H1307      H    0.4932500636    1.1663709590    0.5553283031           0.568
H1308      H    0.5039010736    1.1801594002    0.4783801448         -0.4123
O1309      O    0.5061348253    1.2270036232    0.4849151959         -0.4136
C1310      C    0.5052484228    1.2416808267    0.5234716450         -0.4207
C1311      C    0.5059008204    1.2593965007    0.5403762542          0.5765
C1312      C    0.5063391209    1.2472786403    0.4998072378         -0.4165
C1313      C    0.5065851923    1.2705203184    0.4921947757         -0.4163
C1314      C    0.5066013163    1.2829664686    0.5326732672         -0.4228
C1315      C    0.5062452794    1.2897835398    0.5082505179         -0.4198
H1316      H    0.5061521464    1.2717146540    0.4724134698         -0.4137
H1317      H    0.5073416862    1.2959493987    0.5478422712          0.5749
C1318      C    0.5010685566    1.1851668527    0.4976051137         -0.4178
H1319      H    0.4995016579    1.2089301177    0.5629785352          0.5701
H1320      H    0.5056219106    1.2549606606    0.5600192246          0.5736
C1321      C    0.5027271782    1.3324826213    0.5178201246          0.5739
C1322      C    0.5016142831    1.3565795117    0.5121462613          0.5727
C1323      C    0.5026534897    1.3635597900    0.4885125611          0.5768
C1324      C    0.5049790703    1.3463369620    0.4711343470         -0.4179
C1325      C    0.5063594059    1.3222587472    0.4767187882         -0.4165
H1326      H    0.5011403547    1.3288368222    0.5373936327          0.5699
C1327      C    0.4898560865    1.3059388450    0.4386205455          0.5762
H1328      H    0.5061256474    1.3520713122    0.4518328331         -0.4143
C1329      C    0.5016062808    1.3875312984    0.4824966181          0.5757
C1330      C    0.4990492504    1.3979325218    0.5237634824           0.567
C1331      C    0.5000000000    1.4050896748    0.5000000000           0.571
C1332      C    0.4996414900    1.3739221470    0.5297718578          0.5677
H1333      H    0.5024582703    1.3926098464    0.4630186422         -0.4209
H1334      H    0.4974698394    1.4115645426    0.5385147303          0.5629
H1335      H    0.4986529879    1.3686376514    0.5491776886          0.5642
H1336      H    0.4899295736    1.2872986108    0.4306508869         -0.4217
H1337      H    0.4926412017    1.3194858623    0.4238532419         -0.4199
H1338      H    0.4720970413    1.3091663446    0.4478094224            0.56
O1339      O    0.5100631794    1.3076986799    0.4563411694         -0.4097
C1230      C    0.5000000000    0.9050896748    0.0000000000         -0.4149
C1231      C    0.4815677168    0.8964104162   -0.0143074466         -0.4166
C1232      C    0.4763861240    0.8724450990   -0.0146448979         -0.4204
C1233      C    0.4881270008    0.8558670299   -0.0003747425          0.5764
C1234      C    0.5043974233    0.8650455203    0.0166385458          0.5753
C1235      C    0.5120735842    0.8889466655    0.0152940592         -0.4185
C1236      C    0.4847062820    0.8313428455   -0.0052733088          0.5765
H1237      H    0.4627192039    0.8671286618   -0.0283374220         -0.4197
F1238      F    0.4676502296    0.9105950755   -0.0293497666         -0.4143
C1239      C    0.5317510817    0.8954360851    0.0295587228         -0.4161
C1240      C    0.5126760316    0.8514579957    0.0360179633          0.5671
C1241      C    0.5305238142    0.8590874440    0.0510703172           0.568
C1242      C    0.5408797243    0.8808277829    0.0470847359         -0.4227
H1243      H    0.5048521709    0.8334624298    0.0404421444          0.5592
H1244      H    0.5369800620    0.8473020784    0.0660938245          0.5617
H1245      H    0.5562208384    0.8870769607    0.0585837945          -0.421
H1246      H    0.5413166891    0.9129969687    0.0277231806         -0.4088
C1247      C    0.4647771825    0.8220808385   -0.0176256837          0.5727
C1248      C    0.4624190074    0.7979117938   -0.0229678560          0.5736
C1249      C    0.4801842885    0.7825461653   -0.0155929895         -0.4218
C1250      C    0.4998793605    0.7910143903   -0.0040543830         -0.4176
C1251      C    0.5021314124    0.6858205580   -0.0049016305         -0.4206
H1252      H    0.4493170165    0.8336290410   -0.0231952139           0.568
H1253      H    0.5204657271    0.8198405998    0.0079868973         -0.4123
O1254      O    0.5160651705    0.7729963768    0.0026641498         -0.4136
C1255      C    0.4827431426    0.7583191733   -0.0167530575         -0.4207
C1256      C    0.4686781658    0.7406034993   -0.0261534756          0.5765
C1257      C    0.5034808819    0.7527213597   -0.0053014218         -0.4165
C1258      C    0.5100970564    0.7294796816   -0.0015283110         -0.4163
C1259      C    0.4756092402    0.7170335314   -0.0227202686         -0.4228
C1260      C    0.4962363206    0.7102164602   -0.0096389459         -0.4198
H1261      H    0.5267283526    0.7282853460    0.0091902514         -0.4137
H1262      H    0.4630693936    0.7040506013   -0.0312875947          0.5749
C1263      C    0.5026000160    0.8148331473    0.0003423601         -0.4178
H1264      H    0.4460682117    0.7910698823   -0.0325254738          0.5701
H1265      H    0.4517922679    0.7450393394   -0.0361929242          0.5736
C1266      C    0.4862403286    0.6675173787   -0.0116475655          0.5739
C1267      C    0.4904933993    0.6434204883   -0.0077305961          0.5727
C1268      C    0.5111780294    0.6364402100    0.0037488555          0.5768
C1269      C    0.5272046866    0.6536630380    0.0108591937         -0.4179
C1270      C    0.5231677465    0.6777412528    0.0067610937         -0.4165
H1271      H    0.4687293309    0.6711631778   -0.0205360521          0.5699
C1272      C    0.5470010389    0.6940611550    0.0407582968          0.5762
H1273      H    0.5442535520    0.6479286878    0.0199805570         -0.4143
C1274      C    0.5157569913    0.6124687016    0.0077888214          0.5757
C1275      C    0.4792510483    0.6020674782   -0.0116227373           0.567
C1276      C    0.5000000000    0.5949103252    0.0000000000           0.571
C1277      C    0.4744404971    0.6260778530   -0.0152710136          0.5677
H1278      H    0.5328021124    0.6073901536    0.0172535601         -0.4209
H1279      H    0.4658535165    0.5884354574   -0.0179945499          0.5629
H1280      H    0.4573854360    0.6313623486   -0.0245816686          0.5642
H1281      H    0.5538313250    0.7127013892    0.0448653699         -0.4217
H1282      H    0.5610430741    0.6805141377    0.0461109942         -0.4199
H1283      H    0.5298786934    0.6908336554    0.0510851757            0.56
O1284      O    0.5424715983    0.6923013201    0.0142661983         -0.4097
C1175      C    0.5000000000    1.0949103252    0.0000000000         -0.4149
C1176      C    0.5116116570    1.1035895838    0.0202391085         -0.4166
C1177      C    0.5112269185    1.1275549010    0.0254174050         -0.4204
C1178      C    0.4987237854    1.1441329701    0.0118101574          0.5764
C1179      C    0.4841325079    1.1349544797   -0.0066634250          0.5753
C1180      C    0.4865290281    1.1110533345   -0.0140787996         -0.4185
C1181      C    0.5031003612    1.1686571545    0.0158774480          0.5765
H1182      H    0.5228907762    1.1328713382    0.0408519230         -0.4197
F1183      F    0.5245774901    1.0894049245    0.0361090491         -0.4143
C1184      C    0.4751325090    1.1045639149   -0.0355451428         -0.4161
C1185      C    0.4660891532    1.1485420043   -0.0175507814          0.5671
C1186      C    0.4536586966    1.1409125560   -0.0373143956           0.568
C1187      C    0.4590425715    1.1191722171   -0.0470171593         -0.4227
H1188      H    0.4606222326    1.1665375702   -0.0104164312          0.5592
H1189      H    0.4396762761    1.1526979216   -0.0457926519          0.5617
H1190      H    0.4497832521    1.1129230393   -0.0638053436          -0.421
H1191      H    0.4782774887    1.0870030313   -0.0447635571         -0.4088
C1192      C    0.5125681786    1.1779191615    0.0373276371          0.5727
C1193      C    0.5175314937    1.2020882062    0.0404042095          0.5736
C1194      C    0.5126928207    1.2174538347    0.0217875204         -0.4218
C1195      C    0.5039984307    1.2089856097    0.0006820026         -0.4176
C1196      C    0.5051499471    1.3141794420   -0.0014307151         -0.4206
H1197      H    0.5159388022    1.1663709590    0.0534110228           0.568
H1198      H    0.4949298923    1.1801594002   -0.0213759333         -0.4123
O1199      O    0.4995905979    1.2270036232   -0.0162794283         -0.4136
C1200      C    0.5141966997    1.2416808267    0.0194143704         -0.4207
C1201      C    0.5215547358    1.2593965007    0.0346475821          0.5765
C1202      C    0.5057331052    1.2472786403   -0.0027116630         -0.4165
C1203      C    0.5029144566    1.2705203184   -0.0097873503         -0.4163
C1204      C    0.5191163945    1.2829664686    0.0273072011         -0.4228
C1205      C    0.5090235219    1.2897835398    0.0050646434         -0.4198
H1206      H    0.4946070920    1.2717146540   -0.0277449472         -0.4137
H1207      H    0.5258610022    1.2959493987    0.0409144453          0.5749
C1208      C    0.5000216933    1.1851668527   -0.0026223697         -0.4178
H1209      H    0.5247280606    1.2089301177    0.0579229424          0.5701
H1210      H    0.5291542299    1.2549606606    0.0527630939          0.5736
C1211      C    0.5096258091    1.3324826213    0.0152426421          0.5739
C1212      C    0.5063368217    1.3565795117    0.0104872429          0.5727
C1213      C    0.4978383117    1.3635597900   -0.0115900545          0.5768
C1214      C    0.4930203813    1.3463369620   -0.0284482334         -0.4179
C1215      C    0.4965187346    1.3222587472   -0.0238817432         -0.4165
H1216      H    0.5159987431    1.3288368222    0.0338175161          0.5699
C1217      C    0.4661571299    1.3059388450   -0.0522014995          0.5762
H1218      H    0.4863527039    1.3520713122   -0.0465977556         -0.4143
C1219      C    0.4944727336    1.3875312984   -0.0166852582          0.5757
C1220      C    0.5086314855    1.3979325218    0.0221608772           0.567
C1221      C    0.5000000000    1.4050896748    0.0000000000           0.571
C1222      C    0.5115770303    1.3739221470    0.0274310848          0.5677
H1223      H    0.4874644824    1.3926098464   -0.0348787143         -0.4209
H1224      H    0.5130828142    1.4115645426    0.0363128921          0.5629
H1225      H    0.5184313089    1.3686376514    0.0456130064          0.5642
H1226      H    0.4630374561    1.2872986108   -0.0595355635         -0.4217
H1227      H    0.4628044818    1.3194858623   -0.0668503860         -0.4199
H1228      H    0.4535544737    1.3091663446   -0.0366775760            0.56
O1229      O    0.4917645540    1.3076986799   -0.0440401919         -0.4097
C1120      C    0.5000000000    1.0000000000   -0.0949103252         -0.4149
C1121      C    0.5014491949    0.9767115495   -0.1035895838         -0.4166
C1122      C    0.5046212849    0.9726005128   -0.1275549010         -0.4204
C1123      C    0.5075674651    0.9908434716   -0.1441329701          0.5764
C1124      C    0.5095776744    1.0142984856   -0.1349544797          0.5753
C1125      C    0.5034945216    1.0191694549   -0.1110533345         -0.4185
C1126      C    0.5061531345    0.9850385652   -0.1686571545          0.5765
H1127      H    0.5033817368    0.9532942070   -0.1328713382         -0.4197
F1128      F    0.4993624765    0.9563249498   -0.0894049245         -0.4143
C1129      C    0.5011900754    1.0433639598   -0.1045639149         -0.4161
C1130      C    0.5186462802    1.0333210398   -0.1485420043          0.5671
C1131      C    0.5181424044    1.0566633364   -0.1409125560           0.568
C1132      C    0.5083060794    1.0617991364   -0.1191722171         -0.4227
H1133      H    0.5271378928    1.0303750783   -0.1665375702          0.5592
H1134      H    0.5251472617    1.0714390219   -0.1526979216          0.5617
H1135      H    0.5067930525    1.0809116684   -0.1129230393          -0.421
H1136      H    0.4934894439    1.0493280468   -0.0870030313         -0.4088
C1137      C    0.5100587719    0.9619193919   -0.1779191615          0.5727
C1138      C    0.5076091903    0.9566185105   -0.2020882062          0.5736
C1139      C    0.5013991144    0.9748236972   -0.2174538347         -0.4218
C1140      C    0.4970375767    0.9972293280   -0.2089856097         -0.4176
C1141      C    0.4949131320    0.9983590629   -0.3141794420         -0.4206
H1142      H    0.5160996697    0.9466372470   -0.1663709590           0.568
H1143      H    0.4924640254    1.0206360268   -0.1801594002         -0.4123
O1144      O    0.4913791362    1.0138155023   -0.2270036232         -0.4136
C1145      C    0.4988371358    0.9759768485   -0.2416808267         -0.4207
C1146      C    0.5010812689    0.9592091623   -0.2593965007          0.5765
C1147      C    0.4937210848    0.9991073438   -0.2472786403         -0.4165
C1148      C    0.4921785823    1.0065659506   -0.2705203184         -0.4163
C1149      C    0.4990755579    0.9666793581   -0.2829664686         -0.4228
C1150      C    0.4952554798    0.9908041266   -0.2897835398         -0.4198
H1151      H    0.4892270414    1.0261306126   -0.2717146540         -0.4137
H1152      H    0.5009366067    0.9516067562   -0.2959493987          0.5749
C1153      C    0.4985381457    1.0021772173   -0.1851668527         -0.4178
H1154      H    0.5112464113    0.9380317624   -0.2089301177          0.5701
H1155      H    0.5047106817    0.9399023904   -0.2549606606          0.5736
C1156      C    0.5003561827    0.9819759196   -0.3324826213          0.5739
C1157      C    0.5004837539    0.9877564892   -0.3565795117          0.5727
C1158      C    0.4954236821    1.0108655223   -0.3635597900          0.5768
C1159      C    0.4901644374    1.0275912807   -0.3463369620         -0.4179
C1160      C    0.4897580832    1.0218531464   -0.3222587472         -0.4165
H1161      H    0.5052624325    0.9629609533   -0.3288368222          0.5699
C1162      C    0.4995125921    1.0622101185   -0.3059388450          0.5762
H1163      H    0.4857384174    1.0464134332   -0.3520713122         -0.4143
C1164      C    0.4954281122    1.0169719285   -0.3875312984          0.5757
C1165      C    0.5049950784    0.9767479847   -0.3979325218           0.567
C1166      C    0.5000000000    1.0000000000   -0.4050896748           0.571
C1167      C    0.5054376414    0.9707267340   -0.3739221470          0.5677
H1168      H    0.4912622162    1.0360182600   -0.3926098464         -0.4209
H1169      H    0.5090704853    0.9624831710   -0.4115645426          0.5629
H1170      H    0.5097257238    0.9517748013   -0.3686376514          0.5642
H1171      H    0.4980791369    1.0700501482   -0.2872986108         -0.4217
H1172      H    0.4942464515    1.0762848436   -0.3194858623         -0.4199
H1173      H    0.5185800107    1.0561890977   -0.3091663446            0.56
O1174      O    0.4826286577    1.0412988806   -0.3076986799         -0.4097
C1065      C    0.5000000000    1.0000000000    0.0949103252         -0.4149
C1066      C    0.5232722393    0.9983103343    0.1035895838         -0.4166
C1067      C    0.5273502920    0.9950959503    0.1275549010         -0.4204
C1068      C    0.5090778751    0.9923383601    0.1441329701          0.5764
C1069      C    0.4856033486    0.9905705267    0.1349544797          0.5753
C1070      C    0.4807954726    0.9967036675    0.1110533345         -0.4185
C1071      C    0.5148970805    0.9936926559    0.1686571545          0.5765
H1072      H    0.5466683712    0.9961360159    0.1328713382         -0.4197
F1073      F    0.5436793053    1.0001863667    0.0894049245         -0.4143
C1074      C    0.4566260612    0.9992578977    0.1045639149         -0.4161
C1075      C    0.4664881389    0.9816988900    0.1485420043          0.5671
C1076      C    0.4431522922    0.9824438432    0.1409125560           0.568
C1077      C    0.4381183663    0.9923326916    0.1191722171         -0.4227
H1078      H    0.4693462328    0.9731773013    0.1665375702          0.5592
H1079      H    0.4283050411    0.9755919787    0.1526979216          0.5617
H1080      H    0.4190224820    0.9940430525    0.1129230393          -0.421
H1081      H    0.4507418327    1.0070197219    0.0870030313         -0.4088
C1082      C    0.5379746788    0.9895484272    0.1779191615          0.5727
C1083      C    0.5433005794    0.9919431250    0.2020882062          0.5736
C1084      C    0.5251605082    0.9983409123    0.2174538347         -0.4218
C1085      C    0.5028011233    1.0029336468    0.2089856097         -0.4176
C1086      C    0.5016933922    1.0050696473    0.3141794420         -0.4206
H1087      H    0.5531936116    0.9833500014    0.1663709590           0.568
H1088      H    0.4794429137    1.0077487236    0.1801594002         -0.4123
O1089      O    0.4862742803    1.0087631053    0.2270036232         -0.4136
C1090      C    0.5240338813    1.0009146653    0.2416808267         -0.4207
C1091      C    0.5407774932    0.9984974572    0.2593965007          0.5765
C1092      C    0.5009574640    1.0062693599    0.2472786403         -0.4165
C1093      C    0.4935151877    1.0078888207    0.2705203184         -0.4163
C1094      C    0.5333284130    1.0005802214    0.2829664686         -0.4228
C1095      C    0.5092443894    1.0046492822    0.2897835398         -0.4198
H1096      H    0.4739820561    1.0110422889    0.2717146540         -0.4137
H1097      H    0.5483809879    0.9985635859    0.2959493987          0.5749
C1098      C    0.4978379984    1.0014842650    0.1851668527         -0.4178
H1099      H    0.5618487668    0.9881141141    0.2089301177          0.5701
H1100      H    0.5600457466    0.9946688170    0.2549606606          0.5736
C1101      C    0.5180194398    0.9994576642    0.3324826213          0.5739
C1102      C    0.5122378609    0.9993898077    0.3565795117          0.5727
C1103      C    0.4891823265    1.0046883045    0.3635597900          0.5768
C1104      C    0.4725117835    1.0101200303    0.3463369620         -0.4179
C1105      C    0.4782538089    1.0104670932    0.3222587472         -0.4165
H1106      H    0.5369827148    0.9943552691    0.3288368222          0.5699
C1107      C    0.4377982347    1.0011299548    0.3059388450          0.5762
H1108      H    0.4537363517    1.0147402296    0.3520713122         -0.4143
C1109      C    0.4830762002    1.0047469482    0.3875312984          0.5757
C1110      C    0.5231991803    0.9947650163    0.3979325218           0.567
C1111      C    0.5000000000    1.0000000000    0.4050896748           0.571
C1112      C    0.5292155385    0.9942602829    0.3739221470          0.5677
H1113      H    0.4640739147    1.0091093529    0.3926098464         -0.4209
H1114      H    0.5374211379    0.9905424844    0.4115645426          0.5629
H1115      H    0.5481221684    0.9897766734    0.3686376514          0.5642
H1116      H    0.4299734295    1.0026443138    0.2872986108         -0.4217
H1117      H    0.4237786547    1.0065411934    0.3194858623         -0.4199
H1118      H    0.4436219855    0.9820013618    0.3091663446            0.56
O1119      O    0.4588827524    1.0177969948    0.3076986799         -0.4097
C1010      C    0.9050896748    0.5000000000    0.5000000000         -0.4149
C1011      C    0.8964104162    0.4787377388    0.5096108449         -0.4166
C1012      C    0.8724450990    0.4736204691    0.5087297494         -0.4204
C1013      C    0.8558670299    0.4883673846    0.4975935918          0.5764
C1014      C    0.8650455203    0.5081589411    0.4848471053          0.5753
C1015      C    0.8889466655    0.5153093846    0.4879458545         -0.4185
C1016      C    0.8313428455    0.4838979397    0.5015586052          0.5765
H1017      H    0.8671286618    0.4571354942    0.5188547445         -0.4197
F1018      F    0.9105950755    0.4616941134    0.5209898903         -0.4143
C1019      C    0.8954360851    0.5377724931    0.4786672072         -0.4161
C1020      C    0.8514579957    0.5207315374    0.4679347725          0.5671
C1021      C    0.8590874440    0.5415992763    0.4574631838           0.568
C1022      C    0.8808277829    0.5507391233    0.4637554751         -0.4227
H1023      H    0.8334624298    0.5141561810    0.4618068966          0.5592
H1024      H    0.8473020784    0.5513832919    0.4443612012          0.5617
H1025      H    0.8870769607    0.5683401749    0.4561540865          -0.421
H1026      H    0.9129969687    0.5466456140    0.4826843933         -0.4088
C1027      C    0.8220808385    0.4616364476    0.5089190496          0.5727
C1028      C    0.7979117938    0.4580966831    0.5135633862          0.5736
C1029      C    0.7825461653    0.4770925024    0.5105380405         -0.4218
C1030      C    0.7910143903    0.4989365197    0.5039142796         -0.4176
C1031      C    0.6858205580    0.5009286657    0.5052636946         -0.4206
H1032      H    0.8336290410    0.4453034060    0.5107268530           0.568
H1033      H    0.8198405998    0.5217645303    0.4970097264         -0.4123
O1034      O    0.7729963768    0.5162433116    0.5011585436         -0.4136
C1035      C    0.7583191733    0.4793099762    0.5122632368         -0.4207
C1036      C    0.7406034993    0.4634395850    0.5181217449          0.5765
C1037      C    0.7527213597    0.5021475742    0.5059673726         -0.4165
C1038      C    0.7294796816    0.5094615941    0.5038424626         -0.4163
C1039      C    0.7170335314    0.4709804864    0.5164008414         -0.4228
C1040      C    0.7102164602    0.4940908013    0.5084944647         -0.4198
H1041      H    0.7282853460    0.5281350589    0.4973011090         -0.4137
H1042      H    0.7040506013    0.4567875323    0.5218051807          0.5749
C1043      C    0.8148331473    0.5026081209    0.5002738592         -0.4178
H1044      H    0.7910698823    0.4399669034    0.5190413116          0.5701
H1045      H    0.7450393394    0.4446770334    0.5239433200          0.5736
C1046      C    0.6675173787    0.4839020671    0.5081148565          0.5739
C1047      C    0.6434204883    0.4889518055    0.5052985821          0.5727
C1048      C    0.6364402100    0.5117442524    0.4989632761          0.5768
C1049      C    0.6536630380    0.5289877217    0.4957894117         -0.4179
C1050      C    0.6777412528    0.5241058756    0.4988322537         -0.4165
H1051      H    0.6711631778    0.4648002762    0.5126713702          0.5699
C1052      C    0.6940611550    0.5552150141    0.4713357604          0.5762
H1053      H    0.6479286878    0.5476944871    0.4908986035         -0.4143
C1054      C    0.6124687016    0.5171395872    0.4961034547          0.5757
C1055      C    0.6020674782    0.4771115691    0.5064596246           0.567
C1056      C    0.5949103252    0.5000000000    0.5000000000           0.571
C1057      C    0.6260778530    0.4715824483    0.5088845257          0.5677
H1058      H    0.6073901536    0.5359228453    0.4908778786         -0.4209
H1059      H    0.5884354574    0.4625969795    0.5095289149          0.5629
H1060      H    0.6313623486    0.4528254831    0.5139579529          0.5642
H1061      H    0.7127013892    0.5628151704    0.4689360766         -0.4217
H1062      H    0.6805141377    0.5701184801    0.4694078534         -0.4199
H1063      H    0.6908336554    0.5409754362    0.4572981836            0.56
O1064      O    0.6923013201    0.5446281762    0.4960393224         -0.4097
C955       C    1.0949103252    0.5000000000    0.5000000000         -0.4149
C956       C    1.1035895838    0.4793255132    0.5108174715         -0.4166
C957       C    1.1275549010    0.4768648078    0.5153899660         -0.4204
C958       C    1.1441329701    0.4947240195    0.5106429588          0.5764
C959       C    1.1349544797    0.5169609206    0.5029164551          0.5753
C960       C    1.1110533345    0.5189287659    0.4953759860         -0.4185
C961       C    1.1686571545    0.4888468178    0.5117180256          0.5765
H962       H    1.1328713382    0.4587303815    0.5221288461         -0.4197
F963       F    1.0894049245    0.4598592702    0.5172231896         -0.4143
C964       C    1.1045639149    0.5400819279    0.4834081845         -0.4161
C965       C    1.1485420043    0.5380279755    0.5034421707          0.5671
C966       C    1.1409125560    0.5591370157    0.4934659430           0.568
C967       C    1.1191722171    0.5598166015    0.4823903890         -0.4227
H968       H    1.1665375702    0.5387997794    0.5123970852          0.5592
H969       H    1.1526979216    0.5754848007    0.4938385482          0.5617
H970       H    1.1129230393    0.5766519255    0.4732170583          -0.421
H971       H    1.0870030313    0.5423885180    0.4739451140         -0.4088
C972       C    1.1779191615    0.4693283385    0.5247095282          0.5727
C973       C    1.2020882062    0.4634893266    0.5246338008          0.5736
C974       C    1.2174538347    0.4775812495    0.5115413763         -0.4218
C975       C    1.2089856097    0.4962623143    0.4984244744         -0.4176
C976       C    1.3141794420    0.4964278167    0.4960240213         -0.4206
H977       H    1.1663709590    0.4578365511    0.5364558136           0.568
H978       H    1.1801594002    0.5157710474    0.4847058645         -0.4123
O979       O    1.2270036232    0.5091007640    0.4864957973         -0.4136
C980       C    1.2416808267    0.4775897613    0.5087318532         -0.4207
C981       C    1.2593965007    0.4631936325    0.5176168356          0.5765
C982       C    1.2472786403    0.4966251208    0.4946304747         -0.4165
C983       C    1.2705203184    0.5028069256    0.4901812704         -0.4163
C984       C    1.2829664686    0.4691971799    0.5127399389         -0.4228
C985       C    1.2897835398    0.4896687750    0.4994166044         -0.4198
H986       H    1.2717146540    0.5194686517    0.4795100719         -0.4137
H987       H    1.2959493987    0.4561927020    0.5205840695          0.5749
C988       C    1.1851668527    0.5013921089    0.4977775405         -0.4178
H989       H    1.2089301177    0.4480000955    0.5355324382          0.5701
H990       H    1.2549606606    0.4470437456    0.5288018806          0.5736
C991       C    1.3324826213    0.4836869504    0.5076732491          0.5739
C992       C    1.3565795117    0.4890173470    0.5054331304          0.5727
C993       C    1.3635597900    0.5080559302    0.4913916176          0.5768
C994       C    1.3463369620    0.5211845809    0.4797705513         -0.4179
C995       C    1.3222587472    0.5157792796    0.4817388061         -0.4165
H996       H    1.3288368222    0.4683240563    0.5199052448          0.5699
C997       C    1.3059388450    0.5566069743    0.4741932787          0.5762
H998       H    1.3520713122    0.5365671905    0.4680556719         -0.4143
C999       C    1.3875312984    0.5136336549    0.4889062193          0.5757
C1000      C    1.3979325218    0.4808043596    0.5140404562           0.567
C1001      C    1.4050896748    0.5000000000    0.5000000000           0.571
C1002      C    1.3739221470    0.4754866217    0.5168992996          0.5677
H1003      H    1.3926098464    0.5293270147    0.4773374731         -0.4209
H1004      H    1.4115645426    0.4694402378    0.5235772580          0.5629
H1005      H    1.3686376514    0.4599292723    0.5285411331          0.5642
H1006      H    1.2872986108    0.5631815224    0.4696881508         -0.4217
H1007      H    1.3194858623    0.5673120861    0.4636466818         -0.4199
H1008      H    1.3091663446    0.5588823782    0.4940588690            0.56
O1009      O    1.3076986799    0.5306291807    0.4673011565         -0.4097
C900       C    0.9050896748    0.5000000000    0.0000000000         -0.4149
C901       C    0.8964104162    0.4964970023   -0.0230690507         -0.4166
C902       C    0.8724450990    0.4987290884   -0.0277573947         -0.4204
C903       C    0.8558670299    0.5054624569   -0.0105484646          0.5764
C904       C    0.8650455203    0.5123819786    0.0119526208          0.5753
C905       C    0.8889466655    0.5074650504    0.0179986862         -0.4185
C906       C    0.8313428455    0.5028538045   -0.0159236113          0.5765
H907       H    0.8671286618    0.4934392170   -0.0463661878         -0.4197
F908       F    0.9105950755    0.4901508748   -0.0425548021         -0.4143
C909       C    0.8954360851    0.5103234929    0.0421340098         -0.4161
C910       C    0.8514579957    0.5252642962    0.0286302427          0.5671
C911       C    0.8590874440    0.5297026554    0.0515522336           0.568
C912       C    0.8808277829    0.5211731928    0.0586499797         -0.4227
H913       H    0.8334624298    0.5329419763    0.0239569781          0.5592
H914       H    0.8473020784    0.5396706799    0.0645147718          0.5617
H915       H    0.8870769607    0.5237316712    0.0776508302          -0.421
H916       H    0.9129969687    0.5040564982    0.0495902043         -0.4088
C917       C    0.8220808385    0.5017875752   -0.0393461075          0.5727
C918       C    0.7979117938    0.4982735045   -0.0440099151          0.5736
C919       C    0.7825461653    0.4960492590   -0.0249037224         -0.4218
C920       C    0.7910143903    0.4965191459   -0.0020823616         -0.4176
C921       C    0.6858205580    0.4946812887   -0.0005293493         -0.4206
H922       H    0.8336290410    0.5044639283   -0.0555594826           0.568
H923       H    0.8198405998    0.4969932708    0.0217622631         -0.4123
O924       O    0.7729963768    0.4944920847    0.0153248251         -0.4136
C925       C    0.7583191733    0.4937886878   -0.0232353967         -0.4207
C926       C    0.7406034993    0.4924401464   -0.0400987555          0.5765
C927       C    0.7527213597    0.4936742094    0.0004538558         -0.4165
C928       C    0.7294796816    0.4937420834    0.0080699915         -0.4163
C929       C    0.7170335314    0.4920577127   -0.0323734435         -0.4228
C930       C    0.7102164602    0.4934199941   -0.0079861181         -0.4198
H931       H    0.7282853460    0.4949900182    0.0278166431         -0.4137
H932       H    0.7040506013    0.4906928041   -0.0474990461          0.5749
C933       C    0.8148331473    0.4990310529    0.0024368904         -0.4178
H934       H    0.7910698823    0.4979023528   -0.0629455647          0.5701
H935       H    0.7450393394    0.4919092637   -0.0597365314          0.5736
C936       C    0.6675173787    0.4965407092   -0.0176925874          0.5739
C937       C    0.6434204883    0.4978864985   -0.0120694111          0.5727
C938       C    0.6364402100    0.4978222024    0.0115870383          0.5768
C939       C    0.6536630380    0.4962148147    0.0290463325         -0.4179
C940       C    0.6777412528    0.4946054975    0.0235235246         -0.4165
H941       H    0.6711631778    0.4973194918   -0.0373148637          0.5699
C942       C    0.6940611550    0.5126649570    0.0609092380          0.5762
H943       H    0.6479286878    0.4958646947    0.0483787016         -0.4143
C944       C    0.6124687016    0.4991164596    0.0175547108          0.5757
C945       C    0.6020674782    0.4999705655   -0.0237824758           0.567
C946       C    0.5949103252    0.5000000000    0.0000000000           0.571
C947       C    0.6260778530    0.4991312029   -0.0297613379          0.5677
H948       H    0.6073901536    0.4990679496    0.0370512510         -0.4209
H949       H    0.5884354574    0.5009406841   -0.0385862835          0.5629
H950       H    0.6313623486    0.4993190830   -0.0491914205          0.5642
H951       H    0.7127013892    0.5129199898    0.0688751540         -0.4217
H952       H    0.6805141377    0.5104908204    0.0757787792         -0.4199
H953       H    0.6908336554    0.5300302076    0.0509962560            0.56
O954       O    0.6923013201    0.4917447038    0.0440364753         -0.4097
C845       C    1.0949103252    0.5000000000    0.0000000000         -0.4149
C846       C    1.1035895838    0.5215415631   -0.0089673379         -0.4166
C847       C    1.1275549010    0.5243928485   -0.0133070326         -0.4204
C848       C    1.1441329701    0.5061868272   -0.0101405971          0.5764
C849       C    1.1349544797    0.4833592463   -0.0043890606          0.5753
C850       C    1.1110533345    0.4807392851    0.0029503463         -0.4185
C851       C    1.1686571545    0.5121355458   -0.0106973887          0.5765
H852       H    1.1328713382    0.5430472835   -0.0184336276         -0.4197
F853       F    1.0894049245    0.5414935628   -0.0136455374         -0.4143
C854       C    1.1045639149    0.4586202479    0.0130217282         -0.4161
C855       C    1.1485420043    0.4624189526   -0.0067557633          0.5671
C856       C    1.1409125560    0.4405180964    0.0013355403           0.568
C857       C    1.1191722171    0.4388721968    0.0123091790         -0.4227
H858       H    1.1665375702    0.4624335078   -0.0157438645          0.5592
H859       H    1.1526979216    0.4242655846   -0.0004657846          0.5617
H860       H    1.1129230393    0.4212989111    0.0199745401          -0.421
H861       H    1.0870030313    0.4554946463    0.0222467309         -0.4088
C862       C    1.1779191615    0.5327157237   -0.0219315533          0.5727
C863       C    1.2020882062    0.5385257242   -0.0213453037          0.5736
C864       C    1.2174538347    0.5233424686   -0.0095358745         -0.4218
C865       C    1.2089856097    0.5035855243    0.0018964679         -0.4176
C866       C    1.3141794420    0.5032106584    0.0042732392         -0.4206
H867       H    1.1663709590    0.5451910486   -0.0326274714           0.568
H868       H    1.1801594002    0.4829514460    0.0138558047         -0.4123
O869       O    1.2270036232    0.4897527440    0.0126562688         -0.4136
C870       C    1.2416808267    0.5230882048   -0.0067378676         -0.4207
C871       C    1.2593965007    0.5382064215   -0.0143293732          0.5765
C872       C    1.2472786403    0.5028921995    0.0056441823         -0.4165
C873       C    1.2705203184    0.4963448671    0.0095355276         -0.4163
C874       C    1.2829664686    0.5317992474   -0.0099963809         -0.4228
C875       C    1.2897835398    0.5102405785    0.0014849623         -0.4198
H876       H    1.2717146540    0.4788134762    0.0187082004         -0.4137
H877       H    1.2959493987    0.5454400924   -0.0166727706          0.5749
C878       C    1.1851668527    0.4984188016    0.0020921532         -0.4178
H879       H    1.2089301177    0.5549090123   -0.0308471166          0.5701
H880       H    1.2549606606    0.5552728883   -0.0240586996          0.5736
C881       C    1.3324826213    0.5169217825   -0.0062167207          0.5739
C882       C    1.3565795117    0.5114158509   -0.0044515079          0.5727
C883       C    1.3635597900    0.4912218714    0.0078706238          0.5768
C884       C    1.3463369620    0.4771269133    0.0182986056         -0.4179
C885       C    1.3222587472    0.4826836791    0.0168107673         -0.4165
H886       H    1.3288368222    0.5332958638   -0.0170578320          0.5699
C887       C    1.3059388450    0.4413524131    0.0207556488          0.5762
H888       H    1.3520713122    0.4607784308    0.0286228585         -0.4143
C889       C    1.3875312984    0.4854481022    0.0098585388          0.5757
C890       C    1.3979325218    0.5203503420   -0.0123073394           0.567
C891       C    1.4050896748    0.5000000000    0.0000000000           0.571
C892       C    1.3739221470    0.5258977912   -0.0146900120          0.5677
H893       H    1.3926098464    0.4688028450    0.0200100334         -0.4209
H894       H    1.4115645426    0.5325051994   -0.0208134134          0.5629
H895       H    1.3686376514    0.5424139533   -0.0249262123          0.5642
H896       H    1.2872986108    0.4344089508    0.0246683450         -0.4217
H897       H    1.3194858623    0.4297656996    0.0303252985         -0.4199
H898       H    1.3091663446    0.4408236284    0.0007671639            0.56
O899       O    1.3076986799    0.4666276675    0.0298939542         -0.4097
C790       C    1.0000000000    0.5000000000   -0.4050896748         -0.4149
C791       C    1.0232722393    0.4983103343   -0.3964104162         -0.4166
C792       C    1.0273502920    0.4950959503   -0.3724450990         -0.4204
C793       C    1.0090778751    0.4923383601   -0.3558670299          0.5764
C794       C    0.9856033486    0.4905705267   -0.3650455203          0.5753
C795       C    0.9807954726    0.4967036675   -0.3889466655         -0.4185
C796       C    1.0148970805    0.4936926559   -0.3313428455          0.5765
H797       H    1.0466683712    0.4961360159   -0.3671286618         -0.4197
F798       F    1.0436793053    0.5001863667   -0.4105950755         -0.4143
C799       C    0.9566260612    0.4992578977   -0.3954360851         -0.4161
C800       C    0.9664881389    0.4816988900   -0.3514579957          0.5671
C801       C    0.9431522922    0.4824438432   -0.3590874440           0.568
C802       C    0.9381183663    0.4923326916   -0.3808277829         -0.4227
H803       H    0.9693462328    0.4731773013   -0.3334624298          0.5592
H804       H    0.9283050411    0.4755919787   -0.3473020784          0.5617
H805       H    0.9190224820    0.4940430525   -0.3870769607          -0.421
H806       H    0.9507418327    0.5070197219   -0.4129969687         -0.4088
C807       C    1.0379746788    0.4895484272   -0.3220808385          0.5727
C808       C    1.0433005794    0.4919431250   -0.2979117938          0.5736
C809       C    1.0251605082    0.4983409123   -0.2825461653         -0.4218
C810       C    1.0028011233    0.5029336468   -0.2910143903         -0.4176
C811       C    1.0016933922    0.5050696473   -0.1858205580         -0.4206
H812       H    1.0531936116    0.4833500014   -0.3336290410           0.568
H813       H    0.9794429137    0.5077487236   -0.3198405998         -0.4123
O814       O    0.9862742803    0.5087631053   -0.2729963768         -0.4136
C815       C    1.0240338813    0.5009146653   -0.2583191733         -0.4207
C816       C    1.0407774932    0.4984974572   -0.2406034993          0.5765
C817       C    1.0009574640    0.5062693599   -0.2527213597         -0.4165
C818       C    0.9935151877    0.5078888207   -0.2294796816         -0.4163
C819       C    1.0333284130    0.5005802214   -0.2170335314         -0.4228
C820       C    1.0092443894    0.5046492822   -0.2102164602         -0.4198
H821       H    0.9739820561    0.5110422889   -0.2282853460         -0.4137
H822       H    1.0483809879    0.4985635859   -0.2040506013          0.5749
C823       C    0.9978379984    0.5014842650   -0.3148331473         -0.4178
H824       H    1.0618487668    0.4881141141   -0.2910698823          0.5701
H825       H    1.0600457466    0.4946688170   -0.2450393394          0.5736
C826       C    1.0180194398    0.4994576642   -0.1675173787          0.5739
C827       C    1.0122378609    0.4993898077   -0.1434204883          0.5727
C828       C    0.9891823265    0.5046883045   -0.1364402100          0.5768
C829       C    0.9725117835    0.5101200303   -0.1536630380         -0.4179
C830       C    0.9782538089    0.5104670932   -0.1777412528         -0.4165
H831       H    1.0369827148    0.4943552691   -0.1711631778          0.5699
C832       C    0.9377982347    0.5011299548   -0.1940611550          0.5762
H833       H    0.9537363517    0.5147402296   -0.1479286878         -0.4143
C834       C    0.9830762002    0.5047469482   -0.1124687016          0.5757
C835       C    1.0231991803    0.4947650163   -0.1020674782           0.567
C836       C    1.0000000000    0.5000000000   -0.0949103252           0.571
C837       C    1.0292155385    0.4942602829   -0.1260778530          0.5677
H838       H    0.9640739147    0.5091093529   -0.1073901536         -0.4209
H839       H    1.0374211379    0.4905424844   -0.0884354574          0.5629
H840       H    1.0481221684    0.4897766734   -0.1313623486          0.5642
H841       H    0.9299734295    0.5026443138   -0.2127013892         -0.4217
H842       H    0.9237786547    0.5065411934   -0.1805141377         -0.4199
H843       H    0.9436219855    0.4820013618   -0.1908336554            0.56
O844       O    0.9588827524    0.5177969948   -0.1923013201         -0.4097
C735       C    1.0000000000    0.5000000000    0.4050896748         -0.4149
C736       C    1.0232722393    0.5016896657    0.3964104162         -0.4166
C737       C    1.0273502920    0.5049040497    0.3724450990         -0.4204
C738       C    1.0090778751    0.5076616399    0.3558670299          0.5764
C739       C    0.9856033486    0.5094294733    0.3650455203          0.5753
C740       C    0.9807954726    0.5032963325    0.3889466655         -0.4185
C741       C    1.0148970805    0.5063073441    0.3313428455          0.5765
H742       H    1.0466683712    0.5038639841    0.3671286618         -0.4197
F743       F    1.0436793053    0.4998136333    0.4105950755         -0.4143
C744       C    0.9566260612    0.5007421023    0.3954360851         -0.4161
C745       C    0.9664881389    0.5183011100    0.3514579957          0.5671
C746       C    0.9431522922    0.5175561568    0.3590874440           0.568
C747       C    0.9381183663    0.5076673084    0.3808277829         -0.4227
H748       H    0.9693462328    0.5268226987    0.3334624298          0.5592
H749       H    0.9283050411    0.5244080213    0.3473020784          0.5617
H750       H    0.9190224820    0.5059569475    0.3870769607          -0.421
H751       H    0.9507418327    0.4929802781    0.4129969687         -0.4088
C752       C    1.0379746788    0.5104515728    0.3220808385          0.5727
C753       C    1.0433005794    0.5080568750    0.2979117938          0.5736
C754       C    1.0251605082    0.5016590877    0.2825461653         -0.4218
C755       C    1.0028011233    0.4970663532    0.2910143903         -0.4176
C756       C    1.0016933922    0.4949303527    0.1858205580         -0.4206
H757       H    1.0531936116    0.5166499986    0.3336290410           0.568
H758       H    0.9794429137    0.4922512764    0.3198405998         -0.4123
O759       O    0.9862742803    0.4912368947    0.2729963768         -0.4136
C760       C    1.0240338813    0.4990853347    0.2583191733         -0.4207
C761       C    1.0407774932    0.5015025428    0.2406034993          0.5765
C762       C    1.0009574640    0.4937306401    0.2527213597         -0.4165
C763       C    0.9935151877    0.4921111793    0.2294796816         -0.4163
C764       C    1.0333284130    0.4994197786    0.2170335314         -0.4228
C765       C    1.0092443894    0.4953507178    0.2102164602         -0.4198
H766       H    0.9739820561    0.4889577111    0.2282853460         -0.4137
H767       H    1.0483809879    0.5014364141    0.2040506013          0.5749
C768       C    0.9978379984    0.4985157350    0.3148331473         -0.4178
H769       H    1.0618487668    0.5118858859    0.2910698823          0.5701
H770       H    1.0600457466    0.5053311830    0.2450393394          0.5736
C771       C    1.0180194398    0.5005423358    0.1675173787          0.5739
C772       C    1.0122378609    0.5006101923    0.1434204883          0.5727
C773       C    0.9891823265    0.4953116955    0.1364402100          0.5768
C774       C    0.9725117835    0.4898799697    0.1536630380         -0.4179
C775       C    0.9782538089    0.4895329068    0.1777412528         -0.4165
H776       H    1.0369827148    0.5056447309    0.1711631778          0.5699
C777       C    0.9377982347    0.4988700452    0.1940611550          0.5762
H778       H    0.9537363517    0.4852597704    0.1479286878         -0.4143
C779       C    0.9830762002    0.4952530518    0.1124687016          0.5757
C780       C    1.0231991803    0.5052349837    0.1020674782           0.567
C781       C    1.0000000000    0.5000000000    0.0949103252           0.571
C782       C    1.0292155385    0.5057397171    0.1260778530          0.5677
H783       H    0.9640739147    0.4908906471    0.1073901536         -0.4209
H784       H    1.0374211379    0.5094575156    0.0884354574          0.5629
H785       H    1.0481221684    0.5102233266    0.1313623486          0.5642
H786       H    0.9299734295    0.4973556862    0.2127013892         -0.4217
H787       H    0.9237786547    0.4934588066    0.1805141377         -0.4199
H788       H    0.9436219855    0.5179986382    0.1908336554            0.56
O789       O    0.9588827524    0.4822030052    0.1923013201         -0.4097
C680       C    1.0000000000   -0.4050896748    0.5000000000         -0.4149
C681       C    0.9938377598   -0.3964104162    0.4774949142         -0.4166
C682       C    0.9955094268   -0.3724450990    0.4725787869         -0.4204
C683       C    1.0041985621   -0.3558670299    0.4888878167          0.5764
C684       C    1.0136880842   -0.3650455203    0.5104314374          0.5753
C685       C    1.0095077033   -0.3889466655    0.5170083291         -0.4185
C686       C    1.0009824636   -0.3313428455    0.4838525432          0.5765
H687       H    0.9880911834   -0.3671286618    0.4547115099         -0.4197
F688       F    0.9852684349   -0.4105950755    0.4588794767         -0.4143
C689       C    1.0151537739   -0.3954360851    0.5406474159         -0.4161
C690       C    1.0284226470   -0.3514579957    0.5254976195          0.5671
C691       C    1.0354967974   -0.3590874440    0.5477478575           0.568
C692       C    1.0278507121   -0.3808277829    0.5557894439         -0.4227
H693       H    1.0355047064   -0.3334624298    0.5199631268          0.5592
H694       H    1.0469047665   -0.3473020784    0.5594631105          0.5617
H695       H    1.0326016962   -0.3870769607    0.5743637885          -0.421
H696       H    1.0097964915   -0.4129969687    0.5487818849         -0.4088
C697       C    0.9971993482   -0.3220808385    0.4607130053          0.5727
C698       C    0.9931667071   -0.2979117938    0.4564895470          0.5736
C699       C    0.9931796760   -0.2825461653    0.4757247673         -0.4218
C700       C    0.9963005817   -0.2910143903    0.4983366060         -0.4176
C701       C    0.9946558178   -0.1858205580    0.5000928285         -0.4206
H702       H    0.9979718640   -0.3336290410    0.4442983893           0.568
H703       H    0.9995447060   -0.3198405998    0.5219642715         -0.4123
O704       O    0.9963117962   -0.2729963768    0.5158614170         -0.4136
C705       C    0.9911284781   -0.2583191733    0.4776446839         -0.4207
C706       C    0.9878278181   -0.2406034993    0.4610526051          0.5765
C707       C    0.9937699232   -0.2527213597    0.5011864883         -0.4165
C708       C    0.9947231209   -0.2294796816    0.5087430447         -0.4163
C709       C    0.9883464617   -0.2170335314    0.4687699694         -0.4228
C710       C    0.9925358332   -0.2102164602    0.4928333568         -0.4198
H711       H    0.9982591946   -0.2282853460    0.5282105503         -0.4137
H712       H    0.9852316529   -0.2040506013    0.4539057574          0.5749
C713       C    0.9993210478   -0.3148331473    0.5025330451         -0.4178
H714       H    0.9905957890   -0.2910698823    0.4377255666          0.5701
H715       H    0.9850165930   -0.2450393394    0.4416098406          0.5736
C716       C    0.9945064724   -0.1675173787    0.4828298080          0.5739
C717       C    0.9964971247   -0.1434204883    0.4882583034          0.5727
C718       C    0.9991845964   -0.1364402100    0.5117616911          0.5768
C719       C    0.9996186966   -0.1536630380    0.5292894464         -0.4179
C720       C    0.9973779781   -0.1777412528    0.5239912873         -0.4165
H721       H    0.9929978275   -0.1711631778    0.4632501189          0.5699
C722       C    1.0196629757   -0.1940611550    0.5590229091          0.5762
H723       H    1.0015193778   -0.1479286878    0.5485313405         -0.4143
C724       C    1.0011641326   -0.1124687016    0.5175383383          0.5757
C725       C    0.9972047765   -0.1020674782    0.4763823425           0.567
C726       C    1.0000000000   -0.0949103252    0.5000000000           0.571
C727       C    0.9956757465   -0.1260778530    0.4705416756          0.5677
H728       H    1.0033834705   -0.1073901536    0.5369082111         -0.4209
H729       H    0.9964465746   -0.0884354574    0.4615661694          0.5629
H730       H    0.9936025620   -0.1313623486    0.4512216002          0.5642
H731       H    1.0208427429   -0.2127013892    0.5669051047         -0.4217
H732       H    1.0192329754   -0.1805141377    0.5740444012         -0.4199
H733       H    1.0357574646   -0.1908336554    0.5471575574            0.56
O734       O    0.9969223296   -0.1923013201    0.5446977518         -0.4097
C625       C    1.0000000000    0.0949103252    0.5000000000         -0.4149
C626       C    1.0061622402    0.1035895838    0.5225050858         -0.4166
C627       C    1.0044905732    0.1275549010    0.5274212131         -0.4204
C628       C    0.9958014379    0.1441329701    0.5111121833          0.5764
C629       C    0.9863119158    0.1349544797    0.4895685626          0.5753
C630       C    0.9904922967    0.1110533345    0.4829916709         -0.4185
C631       C    0.9990175364    0.1686571545    0.5161474568          0.5765
H632       H    1.0119088166    0.1328713382    0.5452884901         -0.4197
F633       F    1.0147315651    0.0894049245    0.5411205233         -0.4143
C634       C    0.9848462261    0.1045639149    0.4593525841         -0.4161
C635       C    0.9715773530    0.1485420043    0.4745023805          0.5671
C636       C    0.9645032026    0.1409125560    0.4522521425           0.568
C637       C    0.9721492879    0.1191722171    0.4442105561         -0.4227
H638       H    0.9644952936    0.1665375702    0.4800368732          0.5592
H639       H    0.9530952335    0.1526979216    0.4405368895          0.5617
H640       H    0.9673983038    0.1129230393    0.4256362115          -0.421
H641       H    0.9902035085    0.0870030313    0.4512181151         -0.4088
C642       C    1.0028006518    0.1779191615    0.5392869947          0.5727
C643       C    1.0068332929    0.2020882062    0.5435104530          0.5736
C644       C    1.0068203240    0.2174538347    0.5242752327         -0.4218
C645       C    1.0036994183    0.2089856097    0.5016633940         -0.4176
C646       C    1.0053441822    0.3141794420    0.4999071715         -0.4206
H647       H    1.0020281360    0.1663709590    0.5557016107           0.568
H648       H    1.0004552940    0.1801594002    0.4780357285         -0.4123
O649       O    1.0036882038    0.2270036232    0.4841385830         -0.4136
C650       C    1.0088715219    0.2416808267    0.5223553161         -0.4207
C651       C    1.0121721819    0.2593965007    0.5389473949          0.5765
C652       C    1.0062300768    0.2472786403    0.4988135117         -0.4165
C653       C    1.0052768791    0.2705203184    0.4912569553         -0.4163
C654       C    1.0116535383    0.2829664686    0.5312300306         -0.4228
C655       C    1.0074641668    0.2897835398    0.5071666432         -0.4198
H656       H    1.0017408054    0.2717146540    0.4717894497         -0.4137
H657       H    1.0147683471    0.2959493987    0.5460942426          0.5749
C658       C    1.0006789522    0.1851668527    0.4974669549         -0.4178
H659       H    1.0094042110    0.2089301177    0.5622744334          0.5701
H660       H    1.0149834070    0.2549606606    0.5583901594          0.5736
C661       C    1.0054935276    0.3324826213    0.5171701920          0.5739
C662       C    1.0035028753    0.3565795117    0.5117416966          0.5727
C663       C    1.0008154036    0.3635597900    0.4882383089          0.5768
C664       C    1.0003813034    0.3463369620    0.4707105536         -0.4179
C665       C    1.0026220219    0.3222587472    0.4760087127         -0.4165
H666       H    1.0070021725    0.3288368222    0.5367498811          0.5699
C667       C    0.9803370243    0.3059388450    0.4409770909          0.5762
H668       H    0.9984806222    0.3520713122    0.4514686595         -0.4143
C669       C    0.9988358674    0.3875312984    0.4824616617          0.5757
C670       C    1.0027952235    0.3979325218    0.5236176575           0.567
C671       C    1.0000000000    0.4050896748    0.5000000000           0.571
C672       C    1.0043242535    0.3739221470    0.5294583244          0.5677
H673       H    0.9966165295    0.3926098464    0.4630917889         -0.4209
H674       H    1.0035534254    0.4115645426    0.5384338306          0.5629
H675       H    1.0063974380    0.3686376514    0.5487783998          0.5642
H676       H    0.9791572571    0.2872986108    0.4330948953         -0.4217
H677       H    0.9807670246    0.3194858623    0.4259555988         -0.4199
H678       H    0.9642425354    0.3091663446    0.4528424426            0.56
O679       O    1.0030776704    0.3076986799    0.4553022482         -0.4097
C570       C    0.5949103252   -0.0000000000    0.5000000000         -0.4149
C571       C    0.6035895838    0.0125489759    0.4803283123         -0.4166
C572       C    0.6275549010    0.0124077556    0.4751376635         -0.4204
C573       C    0.6441329701   -0.0007203821    0.4881429519          0.5764
C574       C    0.6349544797   -0.0161628111    0.5059111823          0.5753
C575       C    0.6110533345   -0.0141170464    0.5134308855         -0.4185
C576       C    0.6686571545    0.0038423066    0.4842856029          0.5765
H577       H    0.6328713382    0.0247833241    0.4602677198         -0.4197
F578       F    0.5894049245    0.0262455250    0.4650845470         -0.4143
C579       C    0.6045639149   -0.0265087337    0.5343385544         -0.4161
C580       C    0.6485420043   -0.0346973775    0.5159394936          0.5671
C581       C    0.6409125560   -0.0480419282    0.5350977728           0.568
C582       C    0.6191722171   -0.0431194833    0.5450425839         -0.4227
H583       H    0.6665375702   -0.0398233501    0.5085563656          0.5592
H584       H    0.6526979216   -0.0624069429    0.5429102798          0.5617
H585       H    0.6129230393   -0.0531567122    0.5613775822          -0.421
H586       H    0.5870030313   -0.0237999780    0.5436944458         -0.4088
C587       C    0.6779191615    0.0143066604    0.4633035278          0.5727
C588       C    0.7020882062    0.0194089324    0.4604633492          0.5736
C589       C    0.7174538347    0.0137016375    0.4788323626         -0.4218
C590       C    0.7089856097    0.0040260388    0.4995064549         -0.4176
C591       C    0.8141794420    0.0050771045    0.5016709010         -0.4206
H592       H    0.6663709590    0.0184285991    0.4473961075           0.568
H593       H    0.6801594002   -0.0060680067    0.5211143508         -0.4123
O594       O    0.7270036232   -0.0011731852    0.5162422607         -0.4136
C595       C    0.7416808267    0.0150924513    0.4812734954         -0.4207
C596       C    0.7593965007    0.0231574951    0.4664025000          0.5765
C597       C    0.7472786403    0.0055994859    0.5029778129         -0.4165
C598       C    0.7705203184    0.0024517782    0.5099133782         -0.4163
C599       C    0.7829664686    0.0203772494    0.4736203208         -0.4228
C600       C    0.7897835398    0.0092513320    0.4953645479         -0.4198
H601       H    0.7717146540   -0.0066894431    0.5274611890         -0.4137
H602       H    0.7959493987    0.0277532105    0.4603447030          0.5749
C603       C    0.6851668527   -0.0001014372    0.5026204969         -0.4178
H604       H    0.7089301177    0.0274199783    0.4433017723          0.5701
H605       H    0.7549606606    0.0315990397    0.4486637176          0.5736
C606       C    0.8324826213    0.0103307592    0.4852260448          0.5739
C607       C    0.8565795117    0.0068221568    0.4898218002          0.5727
C608       C    0.8635597900   -0.0027033978    0.5114757963          0.5768
C609       C    0.8463369620   -0.0083074201    0.5280892120         -0.4179
C610       C    0.8222587472   -0.0045985508    0.5236919859         -0.4165
H611       H    0.8288368222    0.0175686607    0.4669708259          0.5699
C612       C    0.8059388450   -0.0362561467    0.5505551999          0.5762
H613       H    0.8520713122   -0.0158197720    0.5459057113         -0.4143
C614       C    0.8875312984   -0.0063044586    0.5164073860          0.5757
C615       C    0.8979325218    0.0096623071    0.4782687588           0.567
C616       C    0.9050896748   -0.0000000000    0.5000000000           0.571
C617       C    0.8739221470    0.0128520132    0.4731426397          0.5677
H618       H    0.8926098464   -0.0141590712    0.5342517827         -0.4209
H619       H    0.9115645426    0.0147730916    0.4643413134          0.5629
H620       H    0.8686376514    0.0205522815    0.4553025367          0.5642
H621       H    0.7872986108   -0.0397166772    0.5577347255         -0.4217
H622       H    0.8194858623   -0.0402927875    0.5650305464         -0.4199
H623       H    0.8091663446   -0.0481161408    0.5344567626            0.56
O624       O    0.8076986799   -0.0102938242    0.5436050256         -0.4097
C515       C    1.0949103252   -0.0000000000    0.5000000000         -0.4149
C516       C    1.1035895838    0.0134578644    0.4809385736         -0.4166
C517       C    1.1275549010    0.0135602669    0.4757470139         -0.4204
C518       C    1.1441329701   -0.0001634343    0.4881222127          0.5764
C519       C    1.1349544797   -0.0164222855    0.5051465595          0.5753
C520       C    1.1110533345   -0.0147314842    0.5127539428         -0.4185
C521       C    1.1686571545    0.0045751614    0.4844831223          0.5765
H522       H    1.1328713382    0.0266196890    0.4614739127         -0.4197
F523       F    1.0894049245    0.0278543473    0.4663540228         -0.4143
C524       C    1.1045639149   -0.0280902069    0.5330573677         -0.4161
C525       C    1.1485420043   -0.0354068299    0.5142944694          0.5671
C526       C    1.1409125560   -0.0496353121    0.5328057360           0.568
C527       C    1.1191722171   -0.0451847465    0.5429704887         -0.4227
H528       H    1.1665375702   -0.0401808551    0.5066790338          0.5592
H529       H    1.1526979216   -0.0643509616    0.5399358531          0.5617
H530       H    1.1129230393   -0.0559771210    0.5588167117          -0.421
H531       H    1.0870030313   -0.0258232706    0.5425300157         -0.4088
C532       C    1.1779191615    0.0160121618    0.4640149715          0.5727
C533       C    1.2020882062    0.0212420366    0.4614172410          0.5736
C534       C    1.2174538347    0.0146794248    0.4794983360         -0.4218
C535       C    1.2089856097    0.0040447573    0.4996958394         -0.4176
C536       C    1.3141794420    0.0049931428    0.5019072035         -0.4206
H537       H    1.1663709590    0.0208757013    0.4483183992           0.568
H538       H    1.1801594002   -0.0070516966    0.5208064916         -0.4123
O539       O    1.2270036232   -0.0019337371    0.5161693555         -0.4136
C540       C    1.2416808267    0.0159542065    0.4820020180         -0.4207
C541       C    1.2593965007    0.0247078976    0.4675256813          0.5765
C542       C    1.2472786403    0.0054536485    0.5032371792         -0.4165
C543       C    1.2705203184    0.0019840926    0.5100174677         -0.4163
C544       C    1.2829664686    0.0215921601    0.4746051503         -0.4228
C545       C    1.2897835398    0.0094585754    0.4958035836         -0.4198
H546       H    1.2717146540   -0.0079701475    0.5271171956         -0.4137
H547       H    1.2959493987    0.0295826957    0.4616901137          0.5749
C548       C    1.1851668527   -0.0002242400    0.5026128547         -0.4178
H549       H    1.2089301177    0.0300492290    0.4446503110          0.5701
H550       H    1.2549606606    0.0339721887    0.4502023736          0.5736
C551       C    1.3324826213    0.0110123611    0.4857268699          0.5739
C552       C    1.3565795117    0.0072920564    0.4901529961          0.5727
C553       C    1.3635597900   -0.0032386946    0.5113363626          0.5768
C554       C    1.3463369620   -0.0096158011    0.5276686362         -0.4179
C555       C    1.3222587472   -0.0057047620    0.5234502144         -0.4165
H556       H    1.3288368222    0.0190985572    0.4678312374          0.5699
C557       C    1.3059388450   -0.0385875332    0.5487989620          0.5762
H558       H    1.3520713122   -0.0179555674    0.5451131590         -0.4143
C559       C    1.3875312984   -0.0070671081    0.5160936167          0.5757
C560       C    1.3979325218    0.0106709762    0.4787458877           0.567
C561       C    1.4050896748   -0.0000000000    0.5000000000           0.571
C562       C    1.3739221470    0.0140976122    0.4737750238          0.5677
H563       H    1.3926098464   -0.0157500670    0.5335499524         -0.4209
H564       H    1.4115645426    0.0164294024    0.4650734929          0.5629
H565       H    1.3686376514    0.0226261952    0.4563157375          0.5642
H566       H    1.2872986108   -0.0423810105    0.5558082693         -0.4217
H567       H    1.3194858623   -0.0432986972    0.5630690376         -0.4199
H568       H    1.3091663446   -0.0496793764    0.5321619504            0.56
O569       O    1.3076986799   -0.0123277881    0.5430742001         -0.4097
C460       C    0.0000000000   -0.0949103252    0.0000000000         -0.4149
C461       C    0.0223580708   -0.1035895838    0.0066759839         -0.4166
C462       C    0.0273111896   -0.1275549010    0.0051173330         -0.4204
C463       C    0.0112054151   -0.1441329701   -0.0039429954          0.5764
C464       C   -0.0101152490   -0.1349544797   -0.0139233715          0.5753
C465       C   -0.0167861455   -0.1110533345   -0.0098946957         -0.4185
C466       C    0.0161657205   -0.1686571545   -0.0006124341          0.5765
H467       H    0.0450039057   -0.1328713382    0.0129427864         -0.4197
F468       F    0.0407723918   -0.0894049245    0.0156693494         -0.4143
C469       C   -0.0402897401   -0.1045639149   -0.0160806135         -0.4161
C470       C   -0.0248400632   -0.1485420043   -0.0289990814          0.5671
C471       C   -0.0469224706   -0.1409125560   -0.0365809004           0.568
C472       C   -0.0551370413   -0.1191722171   -0.0291209700         -0.4227
H473       H   -0.0191448448   -0.1665375702   -0.0359525454          0.5592
H474       H   -0.0583734124   -0.1526979216   -0.0482541537          0.5617
H475       H   -0.0735977190   -0.1129230393   -0.0342960551          -0.421
H476       H   -0.0485447561   -0.0870030313   -0.0109110129         -0.4088
C477       C    0.0392125583   -0.1779191615    0.0036995776          0.5727
C478       C    0.0433425628   -0.2020882062    0.0078278771          0.5736
C479       C    0.0241126836   -0.2174538347    0.0073744309         -0.4218
C480       C    0.0015782423   -0.2089856097    0.0037365394         -0.4176
C481       C   -0.0002151843   -0.3141794420    0.0053406550         -0.4206
H482       H    0.0556405602   -0.1663709590    0.0033031541           0.568
H483       H   -0.0219689379   -0.1801594002   -0.0000478006         -0.4123
O484       O   -0.0159417163   -0.2270036232    0.0033240151         -0.4136
C485       C    0.0221462987   -0.2416808267    0.0093811254         -0.4207
C486       C    0.0386584424   -0.2593965007    0.0130608735          0.5765
C487       C   -0.0013288440   -0.2472786403    0.0062012728         -0.4165
C488       C   -0.0088615909   -0.2705203184    0.0050752822         -0.4163
C489       C    0.0309549786   -0.2829664686    0.0123656405         -0.4228
C490       C    0.0069938367   -0.2897835398    0.0076263234         -0.4198
H491       H   -0.0282430165   -0.2717146540    0.0010943359         -0.4137
H492       H    0.0457439645   -0.2959493987    0.0158200185          0.5749
C493       C   -0.0025479286   -0.1851668527    0.0006207682         -0.4178
H494       H    0.0620427494   -0.2089301177    0.0108278105          0.5701
H495       H    0.0580317322   -0.2549606606    0.0163165947          0.5736
C496       C    0.0170398894   -0.3324826213    0.0058852792          0.5739
C497       C    0.0116584027   -0.3565795117    0.0037708380          0.5727
C498       C   -0.0117772793   -0.3635597900    0.0005458506          0.5768
C499       C   -0.0292904975   -0.3463369620   -0.0002895160         -0.4179
C500       C   -0.0240450396   -0.3222587472    0.0020719412         -0.4165
H501       H    0.0365798964   -0.3288368222    0.0078418974          0.5699
C502       C   -0.0585571552   -0.3059388450   -0.0210094261          0.5762
H503       H   -0.0484838207   -0.3520713122   -0.0026303323         -0.4143
C504       C   -0.0175070809   -0.3875312984   -0.0015654499          0.5757
C505       C    0.0235474544   -0.3979325218    0.0033353277           0.567
C506       C    0.0000000000   -0.4050896748    0.0000000000           0.571
C507       C    0.0293515754   -0.3739221470    0.0049977062          0.5677
H508       H   -0.0368210521   -0.3926098464   -0.0042277701         -0.4209
H509       H    0.0383423796   -0.4115645426    0.0044326166          0.5629
H510       H    0.0486191091   -0.3686376514    0.0075127709          0.5642
H511       H   -0.0664102676   -0.2872986108   -0.0223693838         -0.4217
H512       H   -0.0735845550   -0.3194858623   -0.0209235261         -0.4199
H513       H   -0.0463263561   -0.3091663446   -0.0368279815            0.56
O514       O   -0.0447565083   -0.3076986799    0.0020532984         -0.4097
C405       C    0.0000000000    0.0949103252    0.0000000000         -0.4149
C406       C    0.0217516317    0.1035895838    0.0084450347         -0.4166
C407       C    0.0247067829    0.1275549010    0.0127146786         -0.4204
C408       C    0.0064296699    0.1441329701    0.0099883875          0.5764
C409       C   -0.0165300237    0.1349544797    0.0047892437          0.5753
C410       C   -0.0193262865    0.1110533345   -0.0024848200         -0.4185
C411       C    0.0123900897    0.1686571545    0.0104015034          0.5765
H412       H    0.0434794684    0.1328713382    0.0173897406         -0.4197
F413       F    0.0418106865    0.0894049245    0.0126405277         -0.4143
C414       C   -0.0416818594    0.1045639149   -0.0120196457         -0.4161
C415       C   -0.0374071255    0.1485420043    0.0076604452          0.5671
C416       C   -0.0594968113    0.1409125560    0.0000998579           0.568
C417       C   -0.0614069724    0.1191722171   -0.0108308794         -0.4227
H418       H   -0.0371757354    0.1665375702    0.0166455792          0.5592
H419       H   -0.0757011355    0.1526979216    0.0022927527          0.5617
H420       H   -0.0791600713    0.1129230393   -0.0180700513          -0.421
H421       H   -0.0450291058    0.0870030313   -0.0211665578         -0.4088
C422       C    0.0332353035    0.1779191615    0.0211358985          0.5727
C423       C    0.0390294696    0.2020882062    0.0204096524          0.5736
C424       C    0.0235657290    0.2174538347    0.0089699586         -0.4218
C425       C    0.0035387282    0.2089856097   -0.0019824173         -0.4176
C426       C    0.0031066314    0.3141794420   -0.0043494531         -0.4206
H427       H    0.0459650380    0.1663709590    0.0315277345           0.568
H428       H   -0.0173778652    0.1801594002   -0.0134404731         -0.4123
O429       O   -0.0105496078    0.2270036232   -0.0124053686         -0.4136
C430       C    0.0232440369    0.2416808267    0.0061789003         -0.4207
C431       C    0.0385409996    0.2593965007    0.0134034672          0.5765
C432       C    0.0027551910    0.2472786403   -0.0057123142         -0.4165
C433       C   -0.0038841150    0.2705203184   -0.0094445716         -0.4163
C434       C    0.0320311563    0.2829664686    0.0092263100         -0.4228
C435       C    0.0102017730    0.2897835398   -0.0017315855         -0.4198
H436       H   -0.0216316954    0.2717146540   -0.0181916274         -0.4137
H437       H    0.0458290998    0.2959493987    0.0155716692          0.5749
C438       C   -0.0016312117    0.1851668527   -0.0020533977         -0.4178
H439       H    0.0556372220    0.2089301177    0.0295134506          0.5701
H440       H    0.0558372205    0.2549606606    0.0227182308          0.5736
C441       C    0.0170668367    0.3324826213    0.0058066708          0.5739
C442       C    0.0115199215    0.3565795117    0.0041748032          0.5727
C443       C   -0.0089654536    0.3635597900   -0.0076565594          0.5768
C444       C   -0.0233078859    0.3463369620   -0.0177414632         -0.4179
C445       C   -0.0177168431    0.3222587472   -0.0163881158         -0.4165
H446       H    0.0336976955    0.3288368222    0.0162495998          0.5699
C447       C   -0.0591312503    0.3059388450   -0.0193347263          0.5762
H448       H   -0.0399006842    0.3520713122   -0.0276683018         -0.4143
C449       C   -0.0147855011    0.3875312984   -0.0095046028          0.5757
C450       C    0.0206413353    0.3979325218    0.0118128023           0.567
C451       C   -0.0000000000    0.4050896748    0.0000000000           0.571
C452       C    0.0262446522    0.3739221470    0.0140609485          0.5677
H453       H   -0.0316708199    0.3926098464   -0.0192515736         -0.4209
H454       H    0.0329978652    0.4115645426    0.0200231630          0.5629
H455       H    0.0430029570    0.3686376514    0.0238957148          0.5642
H456       H   -0.0661670860    0.2872986108   -0.0230787717         -0.4217
H457       H   -0.0709454607    0.3194858623   -0.0286220596         -0.4199
H458       H   -0.0591776560    0.3091663446    0.0006606979            0.56
O459       O   -0.0340838153    0.3076986799   -0.0290801411         -0.4097
C350       C   -0.4050896748   -0.0000000000    0.0000000000         -0.4149
C351       C   -0.3964104162    0.0226202841    0.0057249314         -0.4166
C352       C   -0.3724450990    0.0275030909    0.0039583032         -0.4204
C353       C   -0.3558670299    0.0110287276   -0.0044131290          0.5764
C354       C   -0.3650455203   -0.0106947551   -0.0134833509          0.5753
C355       C   -0.3889466655   -0.0171893953   -0.0091762940         -0.4185
C356       C   -0.3313428455    0.0161253838   -0.0012952188          0.5765
H357       H   -0.3671286618    0.0455107787    0.0110288832         -0.4197
F358       F   -0.4105950755    0.0413983000    0.0139318773         -0.4143
C359       C   -0.3954360851   -0.0409334639   -0.0143631757         -0.4161
C360       C   -0.3514579957   -0.0260436653   -0.0279231617          0.5671
C361       C   -0.3590874440   -0.0484268224   -0.0345647711           0.568
C362       C   -0.3808277829   -0.0563187163   -0.0267642748         -0.4227
H363       H   -0.3334624298   -0.0206474632   -0.0351111502          0.5592
H364       H   -0.3473020784   -0.0603609630   -0.0457435545          0.5617
H365       H   -0.3870769607   -0.0749816472   -0.0311543934          -0.421
H366       H   -0.4129969687   -0.0489625804   -0.0088492524         -0.4088
C367       C   -0.3220808385    0.0393338931    0.0020387388          0.5727
C368       C   -0.2979117938    0.0436347113    0.0059887714          0.5736
C369       C   -0.2825461653    0.0244028523    0.0063485859         -0.4218
C370       C   -0.2910143903    0.0017347768    0.0036664867         -0.4176
C371       C   -0.1858205580    0.0000107598    0.0053449775         -0.4206
H372       H   -0.3336290410    0.0557304548    0.0009482507           0.568
H373       H   -0.3198405998   -0.0219513227    0.0008808788         -0.4123
O374       O   -0.2729963768   -0.0157869601    0.0039949075         -0.4136
C375       C   -0.2583191733    0.0225230488    0.0084366068         -0.4207
C376       C   -0.2406034993    0.0391759786    0.0114150903          0.5765
C377       C   -0.2527213597   -0.0010655258    0.0062519010         -0.4165
C378       C   -0.2294796816   -0.0086391360    0.0054453293         -0.4163
C379       C   -0.2170335314    0.0314500123    0.0110461076         -0.4228
C380       C   -0.2102164602    0.0073099537    0.0073238744         -0.4198
H381       H   -0.2282853460   -0.0281715150    0.0022872025         -0.4137
H382       H   -0.2040506013    0.0463717980    0.0138722610          0.5749
C383       C   -0.3148331473   -0.0025194111    0.0007279155         -0.4178
H384       H   -0.2910698823    0.0624449923    0.0081955583          0.5701
H385       H   -0.2450393394    0.0586695734    0.0138489841          0.5736
C386       C   -0.1675173787    0.0172734325    0.0051597353          0.5739
C387       C   -0.1434204883    0.0118073775    0.0032746618          0.5727
C388       C   -0.1364402100   -0.0117436795    0.0010431935          0.5768
C389       C   -0.1536630380   -0.0292765558    0.0009488650         -0.4179
C390       C   -0.1777412528   -0.0239359664    0.0030864837         -0.4165
H391       H   -0.1711631778    0.0368786820    0.0062886399          0.5699
C392       C   -0.1940611550   -0.0593928949   -0.0185154112          0.5762
H393       H   -0.1479286878   -0.0485516714   -0.0005785489         -0.4143
C394       C   -0.1124687016   -0.0175576054   -0.0008240187          0.5757
C395       C   -0.1020674782    0.0236673936    0.0023369853           0.567
C396       C   -0.0949103252   -0.0000000000    0.0000000000           0.571
C397       C   -0.1260778530    0.0295365964    0.0037525352          0.5677
H398       H   -0.1073901536   -0.0369668513   -0.0026675492         -0.4209
H399       H   -0.0884354574    0.0384954781    0.0028079055          0.5629
H400       H   -0.1313623486    0.0488932218    0.0054509048          0.5642
H401       H   -0.2127013892   -0.0672964742   -0.0195421989         -0.4217
H402       H   -0.1805141377   -0.0744032322   -0.0177943732         -0.4199
H403       H   -0.1908336554   -0.0478416849   -0.0348368294            0.56
O404       O   -0.1923013201   -0.0446297114    0.0039433405         -0.4097
C295       C    0.4050896748   -0.0000000000    0.0000000000         -0.4149
C296       C    0.3964104162    0.0172766662   -0.0156833956         -0.4166
C297       C    0.3724450990    0.0224169282   -0.0164185719         -0.4204
C298       C    0.3558670299    0.0118089582   -0.0012872634          0.5764
C299       C    0.3650455203   -0.0031040418    0.0169275947          0.5753
C300       C    0.3889466655   -0.0108609010    0.0161777783         -0.4185
C301       C    0.3313428455    0.0148425877   -0.0064345308          0.5765
H302       H    0.3671286618    0.0349896796   -0.0311221717         -0.4197
F303       F    0.4105950755    0.0299953744   -0.0317520701         -0.4143
C304       C    0.3954360851   -0.0293823816    0.0319143374         -0.4161
C305       C    0.3514579957   -0.0098668494    0.0368865930          0.5671
C306       C    0.3590874440   -0.0265034271    0.0532677095           0.568
C307       C    0.3808277829   -0.0371353233    0.0500908373         -0.4227
H308       H    0.3334624298   -0.0017257445    0.0406956068          0.5592
H309       H    0.3473020784   -0.0317844667    0.0687434819          0.5617
H310       H    0.3870769607   -0.0515460925    0.0627363052          -0.421
H311       H    0.4129969687   -0.0390608720    0.0308203151         -0.4088
C312       C    0.3220808385    0.0337620757   -0.0202838322          0.5727
C313       C    0.2979117938    0.0357021762   -0.0257916271          0.5736
C314       C    0.2825461653    0.0185570695   -0.0170715820         -0.4218
C315       C    0.2910143903   -0.0001917046   -0.0040516447         -0.4176
C316       C    0.1858205580   -0.0025022750   -0.0047230838         -0.4206
H317       H    0.3336290410    0.0487478234   -0.0270265144           0.568
H318       H    0.3198405998   -0.0197904497    0.0095380615         -0.4123
O319       O    0.2729963768   -0.0158125286    0.0038924718         -0.4136
C320       C    0.2583191733    0.0159165349   -0.0180313055         -0.4207
C321       C    0.2406034993    0.0292164420   -0.0284861563          0.5765
C322       C    0.2527213597   -0.0038785073   -0.0050178474         -0.4165
C323       C    0.2294796816   -0.0101847220   -0.0007468069         -0.4163
C324       C    0.2170335314    0.0225701055   -0.0245297800         -0.4228
C325       C    0.2102164602    0.0030107991   -0.0098999823         -0.4198
H326       H    0.2282853460   -0.0259419073    0.0112197591         -0.4137
H327       H    0.2040506013    0.0344135113   -0.0340366496          0.5749
C328       C    0.3148331473   -0.0025659620    0.0005414173         -0.4178
H329       H    0.2910698823    0.0512690280   -0.0365791061          0.5701
H330       H    0.2450393394    0.0452797323   -0.0397952138          0.5736
C331       C    0.1675173787    0.0128225880   -0.0126718419          0.5739
C332       C    0.1434204883    0.0088835404   -0.0084392110          0.5727
C333       C    0.1364402100   -0.0108564098    0.0045978938          0.5768
C334       C    0.1536630380   -0.0262884033    0.0129204070         -0.4179
C335       C    0.1777412528   -0.0225787835    0.0085238140         -0.4165
H336       H    0.1711631778    0.0295976916   -0.0228814517          0.5699
C337       C    0.1940611550   -0.0437253097    0.0442541942          0.5762
H338       H    0.1479286878   -0.0425848248    0.0233266418         -0.4143
C339       C    0.1124687016   -0.0151109177    0.0089782338          0.5757
C340       C    0.1020674782    0.0197930551   -0.0131849152           0.567
C341       C    0.0949103252   -0.0000000000    0.0000000000           0.571
C342       C    0.1260778530    0.0243086063   -0.0171925480          0.5677
H343       H    0.1073901536   -0.0313771832    0.0197265378         -0.4209
H344       H    0.0884354574    0.0326605487   -0.0205687803          0.5629
H345       H    0.1313623486    0.0405966392   -0.0277879899          0.5642
H346       H    0.2127013892   -0.0502193026    0.0488746828         -0.4217
H347       H    0.1805141377   -0.0573138170    0.0506715607         -0.4199
H348       H    0.1908336554   -0.0258590758    0.0532328817            0.56
O349       O    0.1923013201   -0.0412478769    0.0174921046         -0.4097
C240       C    0.0000000000    0.0000000000   -0.4050896748         -0.4149
C241       C   -0.0233143668    0.0009446649   -0.3964104162         -0.4166
C242       C   -0.0274931151    0.0040270083   -0.3724450990         -0.4204
C243       C   -0.0093182164    0.0073674544   -0.3558670299          0.5764
C244       C    0.0140877795    0.0098849889   -0.3650455203          0.5753
C245       C    0.0190893062    0.0039087174   -0.3889466655         -0.4185
C246       C   -0.0150911422    0.0058277803   -0.3313428455          0.5765
H247       H   -0.0467680598    0.0023697731   -0.3671286618         -0.4197
F248       F   -0.0436510112   -0.0015829302   -0.4105950755         -0.4143
C249       C    0.0433280310    0.0021286175   -0.3954360851         -0.4161
C250       C    0.0329095417    0.0193633036   -0.3514579957          0.5671
C251       C    0.0562572759    0.0193649020   -0.3590874440           0.568
C252       C    0.0616048267    0.0096420715   -0.3808277829         -0.4227
H253       H    0.0297804289    0.0277891465   -0.3334624298 0.5640000000000001
H254       H    0.0708778446    0.0266880081   -0.3473020784          0.5617
H255       H    0.0807456357    0.0085431818   -0.3870769607          -0.421
H256       H    0.0494574373   -0.0054410878   -0.4129969687         -0.4088
C257       C   -0.0382894530    0.0092319768   -0.3220808385          0.5727
C258       C   -0.0435360590    0.0066682063   -0.2979117938          0.5736
C259       C   -0.0252006924    0.0008537246   -0.2825461653         -0.4218
C260       C   -0.0027058868   -0.0030217135   -0.2910143903         -0.4176
C261       C   -0.0015304229   -0.0051212017   -0.1858205580         -0.4206
H262       H   -0.0536988002    0.0149406032   -0.3336290410           0.568
H263       H    0.0207943424   -0.0070874424   -0.3198405998         -0.4123
O264       O    0.0139989041   -0.0083197404   -0.2729963768         -0.4136
C265       C   -0.0239923451   -0.0016826881   -0.2583191733         -0.4207
C266       C   -0.0408046862    0.0001979020   -0.2406034993          0.5765
C267       C   -0.0007565097   -0.0062967694   -0.2527213597         -0.4165
C268       C    0.0067337438   -0.0076774330   -0.2294796816         -0.4163
C269       C   -0.0332928181   -0.0016456107   -0.2170335314         -0.4228
C270       C   -0.0090910001   -0.0049424970   -0.2102164602         -0.4198
H271       H    0.0263577204   -0.0102047110   -0.2282853460         -0.4137
H272       H   -0.0484021785   -0.0001113169   -0.2040506013          0.5749
C273       C    0.0022083559   -0.0014143754   -0.3148331473         -0.4178
H274       H   -0.0621971957    0.0099021754   -0.2910698823          0.5701
H275       H   -0.0601855090    0.0034084763   -0.2450393394          0.5736
C276       C   -0.0180275671   -0.0000341185   -0.1675173787          0.5739
C277       C   -0.0122511143    0.0002185710   -0.1434204883          0.5727
C278       C    0.0109620520   -0.0043400089   -0.1364402100          0.5768
C279       C    0.0277977517   -0.0092359116   -0.1536630380         -0.4179
C280       C    0.0220697598   -0.0097664000   -0.1777412528         -0.4165
H281       H   -0.0371442959    0.0044593111   -0.1711631778          0.5699
C282       C    0.0622060897    0.0008595430   -0.1940611550          0.5762
H283       H    0.0467113150   -0.0132533983   -0.1479286878         -0.4143
C284       C    0.0170669310   -0.0042033773   -0.1124687016          0.5757
C285       C   -0.0233547078    0.0044905061   -0.1020674782           0.567
C286       C   -0.0000000000    0.0000000000   -0.0949103252           0.571
C287       C   -0.0293841286    0.0048026066   -0.1260778530          0.5677
H288       H    0.0361989891   -0.0079559477   -0.1073901536         -0.4209
H289       H   -0.0377044098    0.0082561275   -0.0884354574          0.5629
H290       H   -0.0484244555    0.0086793783   -0.1313623486          0.5642
H291       H    0.0700753158   -0.0004038411   -0.2127013892         -0.4217
H292       H    0.0763915268   -0.0041006484   -0.1805141377         -0.4199
H293       H    0.0557736743    0.0197921386   -0.1908336554            0.56
O294       O    0.0416652869   -0.0164731582   -0.1923013201         -0.4097
C185       C    0.0000000000    0.0000000000    0.4050896748         -0.4149
C186       C    0.0003472658   -0.0233309129    0.3964104162         -0.4166
C187       C    0.0033215789   -0.0275872305    0.3724450990         -0.4204
C188       C    0.0071263950   -0.0095038432    0.3558670299          0.5764
C189       C    0.0102425397    0.0138300006    0.3650455203          0.5753
C190       C    0.0043963193    0.0189829413    0.3889466655         -0.4185
C191       C    0.0054393792   -0.0152354439    0.3313428455          0.5765
H192       H    0.0011712491   -0.0468134107    0.3671286618         -0.4197
F193       F   -0.0027003291   -0.0435961543    0.4105950755         -0.4143
C194       C    0.0032375658    0.0432593048    0.3954360851         -0.4161
C195       C    0.0201997777    0.0324028462    0.3514579957          0.5671
C196       C    0.0207993194    0.0557428815    0.3590874440           0.568
C197       C    0.0112166307    0.0613376834    0.3808277829         -0.4227
H198       H    0.0285427192    0.0290589709    0.3334624298          0.5592
H199       H    0.0284944615    0.0701711072    0.3473020784          0.5617
H200       H    0.0106083044    0.0805003573    0.3870769607          -0.421
H201       H   -0.0041726804    0.0495805635    0.4129969687         -0.4088
C202       C    0.0082483420   -0.0385133283    0.3220808385          0.5727
C203       C    0.0055510450   -0.0436925544    0.2979117938          0.5736
C204       C    0.0002080458   -0.0252142908    0.2825461653         -0.4218
C205       C   -0.0030900211   -0.0026276121    0.2910143903         -0.4176
C206       C   -0.0051587166   -0.0013987651    0.1858205580         -0.4206
H207       H    0.0135604572   -0.0540638213    0.3336290410           0.568
H208       H   -0.0065525672    0.0209690338    0.3198405998         -0.4123
O209       O   -0.0079584946    0.0142073840    0.2729963768         -0.4136
C210       C   -0.0022965887   -0.0239413814    0.2583191733         -0.4207
C211       C   -0.0008471856   -0.0407963707    0.2406034993          0.5765
C212       C   -0.0063140785   -0.0005949991    0.2527213597         -0.4165
C213       C   -0.0075024612    0.0069281569    0.2294796816         -0.4163
C214       C   -0.0024977119   -0.0332397534    0.2170335314         -0.4228
C215       C   -0.0051736996   -0.0089614392    0.2102164602         -0.4198
H216       H   -0.0095263332    0.0266104214    0.2282853460         -0.4137
H217       H   -0.0013508776   -0.0483834517    0.2040506013          0.5749
C218       C   -0.0013573547    0.0022438542    0.3148331473         -0.4178
H219       H    0.0083060350   -0.0624303934    0.2910698823          0.5701
H220       H    0.0018659859   -0.0602530605    0.2450393394          0.5736
C221       C   -0.0004957998   -0.0180207803    0.1675173787          0.5739
C222       C   -0.0000952561   -0.0122526936    0.1434204883          0.5727
C223       C   -0.0040578433    0.0110696056    0.1364402100          0.5768
C224       C   -0.0085209718    0.0280251691    0.1536630380         -0.4179
C225       C   -0.0091979822    0.0223126420    0.1777412528         -0.4165
H226       H    0.0035065697   -0.0372463172    0.1711631778          0.5699
C227       C    0.0024523814    0.0621636730    0.1940611550          0.5762
H228       H   -0.0120527577    0.0470354181    0.1479286878         -0.4143
C229       C   -0.0037649084    0.0171689831    0.1124687016          0.5757
C230       C    0.0038909108   -0.0234620509    0.1020674782           0.567
C231       C    0.0000000000    0.0000000000    0.0949103252           0.571
C232       C    0.0040484932   -0.0294974871    0.1260778530          0.5677
H233       H   -0.0070262690    0.0363908706    0.1073901536         -0.4209
H234       H    0.0072877960   -0.0379034852    0.0884354574          0.5629
H235       H    0.0074363638   -0.0486308543    0.1313623486          0.5642
H236       H    0.0013909453    0.0700626737    0.2127013892         -0.4217
H237       H   -0.0021428889    0.0764714895    0.1805141377         -0.4199
H238       H    0.0212140306    0.0552484968    0.1908336554            0.56
O239       O   -0.0154006921    0.0420735042    0.1923013201         -0.4097
loop_
_geom_bond_atom_site_label_1
_geom_bond_atom_site_label_2
_geom_bond_distance
_geom_bond_site_symmetry_2
_ccdc_geom_bond_type
Zn1          O5 1.942       .   S
Zn1          O6 1.922       .   S
Zn1         O10 1.922       .   S
Zn1         O17 1.922       .   S
Zn2          O5 1.942       .   S
Zn2          O7 1.922       .   S
Zn2          O9 1.922       .   S
Zn2         O13 1.922       .   S
Zn3          O5 1.942       .   S
Zn3          O8 1.922       .   S
Zn3         O11 1.922       .   S
Zn3         O14 1.922       .   S
Zn4          O5 1.942       .   S
Zn4         O12 1.922       .   S
Zn4         O15 1.922       .   S
Zn4         O16 1.922       .   S
O6          C18 1.304       .   A
O7          C19 1.304       .   A
O8          C20 1.304       .   A
O9          C18 1.304       .   A
O10         C20 1.304       .   A
O11         C19 1.304       .   A
O12         C21 1.304       .   A
O13         C22 1.304       .   A
O14         C21 1.304       .   A
O15         C22 1.304       .   A
O16         C23 1.304       .   A
O17         C23 1.304       .   A
C18        C405 1.540       .   S
C19        C231 1.540       .   S
C20        C396 1.540       .   S
C21        C460 1.540       .   S
C22        C341 1.540       .   S
C23        C286 1.540       .   S
Zn24        O28 1.942       .   S
Zn24        O29 1.922       .   S
Zn24        O33 1.922       .   S
Zn24        O40 1.922       .   S
Zn25        O28 1.942       .   S
Zn25        O30 1.922       .   S
Zn25        O32 1.922       .   S
Zn25        O36 1.922       .   S
Zn26        O28 1.942       .   S
Zn26        O31 1.922       .   S
Zn26        O34 1.922       .   S
Zn26        O37 1.922       .   S
Zn27        O28 1.942       .   S
Zn27        O35 1.922       .   S
Zn27        O38 1.922       .   S
Zn27        O39 1.922       .   S
O29         C41 1.304       .   A
O30         C42 1.304       .   A
O31         C43 1.304       .   A
O32         C41 1.304       .   A
O33         C43 1.304       .   A
O34         C42 1.304       .   A
O35         C44 1.304       .   A
O36         C45 1.304       .   A
O37         C44 1.304       .   A
O38         C45 1.304       .   A
O39         C46 1.304       .   A
O40         C46 1.304       .   A
C41        C185 1.540   1_655   S
C42        C515 1.540       .   S
C43        C625 1.540       .   S
C44        C240 1.540   1_656   S
C45        C726 1.540       .   S
C46        C616 1.540       .   S
Zn47        O51 1.942       .   S
Zn47        O52 1.922       .   S
Zn47        O56 1.922       .   S
Zn47        O63 1.922       .   S
Zn48        O51 1.942       .   S
Zn48        O53 1.922       .   S
Zn48        O55 1.922       .   S
Zn48        O59 1.922       .   S
Zn49        O51 1.942       .   S
Zn49        O54 1.922       .   S
Zn49        O57 1.922       .   S
Zn49        O60 1.922       .   S
Zn50        O51 1.942       .   S
Zn50        O58 1.922       .   S
Zn50        O61 1.922       .   S
Zn50        O62 1.922       .   S
O52         C64 1.304       .   A
O53         C65 1.304       .   A
O54         C66 1.304       .   A
O55         C64 1.304       .   A
O56         C66 1.304       .   A
O57         C65 1.304       .   A
O58         C67 1.304       .   A
O59         C68 1.304       .   A
O60         C67 1.304       .   A
O61         C68 1.304       .   A
O62         C69 1.304       .   A
O63         C69 1.304       .   A
C64        C451 1.540   1_655   S
C65        C781 1.540       .   S
C66        C845 1.540       .   S
C67        C506 1.540   1_665   S
C68        C900 1.540       .   S
C69        C836 1.540       .   S
Zn70        O74 1.942       .   S
Zn70        O75 1.922       .   S
Zn70        O79 1.922       .   S
Zn70        O86 1.922       .   S
Zn71        O74 1.942       .   S
Zn71        O76 1.922       .   S
Zn71        O78 1.922       .   S
Zn71        O82 1.922       .   S
Zn72        O74 1.942       .   S
Zn72        O77 1.922       .   S
Zn72        O80 1.922       .   S
Zn72        O83 1.922       .   S
Zn73        O74 1.942       .   S
Zn73        O81 1.922       .   S
Zn73        O84 1.922       .   S
Zn73        O85 1.922       .   S
O75         C87 1.304       .   A
O76         C88 1.304       .   A
O77         C89 1.304       .   A
O78         C87 1.304       .   A
O79         C89 1.304       .   A
O80         C88 1.304       .   A
O81         C90 1.304       .   A
O82         C91 1.304       .   A
O83         C90 1.304       .   A
O84         C91 1.304       .   A
O85         C92 1.304       .   A
O86         C92 1.304       .   A
C87        C671 1.540       .   S
C88        C735 1.540       .   S
C89       C1010 1.540       .   S
C90        C680 1.540   1_565   S
C91        C955 1.540       .   S
C92        C790 1.540   1_556   S
Zn93        O97 1.942       .   S
Zn93        O98 1.922       .   S
Zn93       O102 1.922       .   S
Zn93       O109 1.922       .   S
Zn94        O97 1.942       .   S
Zn94        O99 1.922       .   S
Zn94       O101 1.922       .   S
Zn94       O105 1.922       .   S
Zn95        O97 1.942       .   S
Zn95       O100 1.922       .   S
Zn95       O103 1.922       .   S
Zn95       O106 1.922       .   S
Zn96        O97 1.942       .   S
Zn96       O104 1.922       .   S
Zn96       O107 1.922       .   S
Zn96       O108 1.922       .   S
O98        C110 1.304       .   A
O99        C111 1.304       .   A
O100       C112 1.304       .   A
O101       C110 1.304       .   A
O102       C112 1.304       .   A
O103       C111 1.304       .   A
O104       C113 1.304       .   A
O105       C114 1.304       .   A
O106       C113 1.304       .   A
O107       C114 1.304       .   A
O108       C115 1.304       .   A
O109       C115 1.304       .   A
C110       C295 1.540   1_565   S
C111      C1065 1.540       .   S
C112      C1230 1.540       .   S
C113       C350 1.540   1_665   S
C114      C1175 1.540       .   S
C115      C1120 1.540       .   S
Zn116      O120 1.942       .   S
Zn116      O121 1.922       .   S
Zn116      O125 1.922       .   S
Zn116      O132 1.922       .   S
Zn117      O120 1.942       .   S
Zn117      O122 1.922       .   S
Zn117      O124 1.922       .   S
Zn117      O128 1.922       .   S
Zn118      O120 1.942       .   S
Zn118      O123 1.922       .   S
Zn118      O126 1.922       .   S
Zn118      O129 1.922       .   S
Zn119      O120 1.942       .   S
Zn119      O127 1.922       .   S
Zn119      O130 1.922       .   S
Zn119      O131 1.922       .   S
O121       C133 1.304       .   A
O122       C134 1.304       .   A
O123       C135 1.304       .   A
O124       C133 1.304       .   A
O125       C135 1.304       .   A
O126       C134 1.304       .   A
O127       C136 1.304       .   A
O128       C137 1.304       .   A
O129       C136 1.304       .   A
O130       C137 1.304       .   A
O131       C138 1.304       .   A
O132       C138 1.304       .   A
C133       C561 1.540   1_465   S
C134      C1340 1.540       .   S
C135      C1111 1.540       .   S
C136       C570 1.540   1_565   S
C137      C1166 1.540   1_556   S
C138      C1285 1.540       .   S
Zn139      O143 1.942       .   S
Zn139      O144 1.922       .   S
Zn139      O148 1.922       .   S
Zn139      O155 1.922       .   S
Zn140      O143 1.942       .   S
Zn140      O145 1.922       .   S
Zn140      O147 1.922       .   S
Zn140      O151 1.922       .   S
Zn141      O143 1.942       .   S
Zn141      O146 1.922       .   S
Zn141      O149 1.922       .   S
Zn141      O152 1.922       .   S
Zn142      O143 1.942       .   S
Zn142      O150 1.922       .   S
Zn142      O153 1.922       .   S
Zn142      O154 1.922       .   S
O144       C156 1.304       .   A
O145       C157 1.304       .   A
O146       C158 1.304       .   A
O147       C156 1.304       .   A
O148       C158 1.304       .   A
O149       C157 1.304       .   A
O150       C159 1.304       .   A
O151       C160 1.304       .   A
O152       C159 1.304       .   A
O153       C160 1.304       .   A
O154       C161 1.304       .   A
O155       C161 1.304       .   A
C156       C891 1.540   1_455   S
C157      C1221 1.540   1_545   S
C158      C1450 1.540       .   S
C159       C946 1.540       .   S
C160      C1441 1.540       .   S
C161      C1276 1.540       .   S
Zn162      O166 1.942       .   S
Zn162      O167 1.922       .   S
Zn162      O171 1.922       .   S
Zn162      O178 1.922       .   S
Zn163      O166 1.942       .   S
Zn163      O168 1.922       .   S
Zn163      O170 1.922       .   S
Zn163      O174 1.922       .   S
Zn164      O166 1.942       .   S
Zn164      O169 1.922       .   S
Zn164      O172 1.922       .   S
Zn164      O175 1.922       .   S
Zn165      O166 1.942       .   S
Zn165      O173 1.922       .   S
Zn165      O176 1.922       .   S
Zn165      O177 1.922       .   S
O167       C179 1.304       .   A
O168       C180 1.304       .   A
O169       C181 1.304       .   A
O170       C179 1.304       .   A
O171       C181 1.304       .   A
O172       C180 1.304       .   A
O173       C182 1.304       .   A
O174       C183 1.304       .   A
O175       C182 1.304       .   A
O176       C183 1.304       .   A
O177       C184 1.304       .   A
O178       C184 1.304       .   A
C179      C1001 1.540   1_455   S
C180      C1331 1.540   1_545   S
C181      C1395 1.540       .   S
C182      C1056 1.540       .   S
C183      C1496 1.540   1_556   S
C184      C1386 1.540       .   S
C1450     C1451 0.021       .   A
C1450     C1455 0.021       .   A
C1451     C1452 0.021       .   A
C1451     F1458 0.021       .   A
C1452     C1453 0.021       .   A
C1452     H1457 0.017       .   A
C1453     C1454 0.021       .   A
C1453     C1456 0.021       .   A
C1454     C1455 0.021       .   A
C1454     C1460 0.021       .   A
C1455     C1459 0.021       .   A
C1456     C1467 0.021       .   A
C1456     C1483 0.021       .   A
C1459     C1462 0.021       .   A
C1459     H1466 0.017       .   A
C1460     C1461 0.021       .   A
C1460     H1463 0.017       .   A
C1461     C1462 0.021       .   A
C1461     H1464 0.017       .   A
C1462     H1465 0.017       .   A
C1467     C1468 0.021       .   A
C1467     H1472 0.017       .   A
C1468     C1469 0.021       .   A
C1468     H1484 0.017       .   A
C1469     C1470 0.021       .   A
C1469     C1475 0.021       .   A
C1470     O1474 0.021       .   A
C1470     C1483 0.021       .   A
C1471     C1480 0.022       .   A
C1471     C1486 0.021       .   A
C1471     C1490 0.021       .   A
H1473     C1483 0.017       .   A
O1474     C1477 0.021       .   A
C1475     C1476 0.021       .   A
C1475     C1477 0.021       .   A
C1476     C1479 0.021       .   A
C1476     H1485 0.017       .   A
C1477     C1478 0.021       .   A
C1478     C1480 0.021       .   A
C1478     H1481 0.017       .   A
C1479     C1480 0.021       .   A
C1479     H1482 0.017       .   A
C1486     C1487 0.021       .   A
C1486     H1491 0.017       .   A
C1487     C1488 0.021       .   A
C1487     C1497 0.021       .   A
C1488     C1489 0.021       .   A
C1488     C1494 0.021       .   A
C1489     C1490 0.021       .   A
C1489     H1493 0.017       .   A
C1490     O1504 0.021       .   A
C1492     H1501 0.017       .   A
C1492     H1502 0.017       .   A
C1492     H1503 0.017       .   A
C1492     O1504 0.023       .   A
C1494     C1496 0.021       .   A
C1494     H1498 0.017       .   A
C1495     C1496 0.021       .   A
C1495     C1497 0.021       .   A
C1495     H1499 0.017       .   A
C1497     H1500 0.017       .   A
C1395     C1396 0.021       .   A
C1395     C1400 0.021       .   A
C1396     C1397 0.021       .   A
C1396     F1403 0.021       .   A
C1397     C1398 0.021       .   A
C1397     H1402 0.017       .   A
C1398     C1399 0.021       .   A
C1398     C1401 0.021       .   A
C1399     C1400 0.021       .   A
C1399     C1405 0.021       .   A
C1400     C1404 0.021       .   A
C1401     C1412 0.021       .   A
C1401     C1428 0.021       .   A
C1404     C1407 0.021       .   A
C1404     H1411 0.017       .   A
C1405     C1406 0.021       .   A
C1405     H1408 0.017       .   A
C1406     C1407 0.021       .   A
C1406     H1409 0.017       .   A
C1407     H1410 0.017       .   A
C1412     C1413 0.021       .   A
C1412     H1417 0.017       .   A
C1413     C1414 0.021       .   A
C1413     H1429 0.017       .   A
C1414     C1415 0.021       .   A
C1414     C1420 0.021       .   A
C1415     O1419 0.021       .   A
C1415     C1428 0.021       .   A
C1416     C1425 0.022       .   A
C1416     C1431 0.021       .   A
C1416     C1435 0.021       .   A
H1418     C1428 0.017       .   A
O1419     C1422 0.021       .   A
C1420     C1421 0.021       .   A
C1420     C1422 0.021       .   A
C1421     C1424 0.021       .   A
C1421     H1430 0.017       .   A
C1422     C1423 0.021       .   A
C1423     C1425 0.021       .   A
C1423     H1426 0.017       .   A
C1424     C1425 0.021       .   A
C1424     H1427 0.017       .   A
C1431     C1432 0.021       .   A
C1431     H1436 0.017       .   A
C1432     C1433 0.021       .   A
C1432     C1442 0.021       .   A
C1433     C1434 0.021       .   A
C1433     C1439 0.021       .   A
C1434     C1435 0.021       .   A
C1434     H1438 0.017       .   A
C1435     O1449 0.021       .   A
C1437     H1446 0.017       .   A
C1437     H1447 0.017       .   A
C1437     H1448 0.017       .   A
C1437     O1449 0.023       .   A
C1439     C1441 0.021       .   A
C1439     H1443 0.017       .   A
C1440     C1441 0.021       .   A
C1440     C1442 0.021       .   A
C1440     H1444 0.017       .   A
C1442     H1445 0.017       .   A
C1340     C1341 0.021       .   A
C1340     C1345 0.021       .   A
C1341     C1342 0.021       .   A
C1341     F1348 0.021       .   A
C1342     C1343 0.021       .   A
C1342     H1347 0.017       .   A
C1343     C1344 0.021       .   A
C1343     C1346 0.021       .   A
C1344     C1345 0.021       .   A
C1344     C1350 0.021       .   A
C1345     C1349 0.021       .   A
C1346     C1357 0.021       .   A
C1346     C1373 0.021       .   A
C1349     C1352 0.021       .   A
C1349     H1356 0.017       .   A
C1350     C1351 0.021       .   A
C1350     H1353 0.017       .   A
C1351     C1352 0.021       .   A
C1351     H1354 0.017       .   A
C1352     H1355 0.017       .   A
C1357     C1358 0.021       .   A
C1357     H1362 0.017       .   A
C1358     C1359 0.021       .   A
C1358     H1374 0.017       .   A
C1359     C1360 0.021       .   A
C1359     C1365 0.021       .   A
C1360     O1364 0.021       .   A
C1360     C1373 0.021       .   A
C1361     C1370 0.022       .   A
C1361     C1376 0.021       .   A
C1361     C1380 0.021       .   A
H1363     C1373 0.017       .   A
O1364     C1367 0.021       .   A
C1365     C1366 0.021       .   A
C1365     C1367 0.021       .   A
C1366     C1369 0.021       .   A
C1366     H1375 0.017       .   A
C1367     C1368 0.021       .   A
C1368     C1370 0.021       .   A
C1368     H1371 0.017       .   A
C1369     C1370 0.021       .   A
C1369     H1372 0.017       .   A
C1376     C1377 0.021       .   A
C1376     H1381 0.017       .   A
C1377     C1378 0.021       .   A
C1377     C1387 0.021       .   A
C1378     C1379 0.021       .   A
C1378     C1384 0.021       .   A
C1379     C1380 0.021       .   A
C1379     H1383 0.017       .   A
C1380     O1394 0.021       .   A
C1382     H1391 0.017       .   A
C1382     H1392 0.017       .   A
C1382     H1393 0.017       .   A
C1382     O1394 0.023       .   A
C1384     C1386 0.021       .   A
C1384     H1388 0.017       .   A
C1385     C1386 0.021       .   A
C1385     C1387 0.021       .   A
C1385     H1389 0.017       .   A
C1387     H1390 0.017       .   A
C1285     C1286 0.021       .   A
C1285     C1290 0.021       .   A
C1286     C1287 0.021       .   A
C1286     F1293 0.021       .   A
C1287     C1288 0.021       .   A
C1287     H1292 0.017       .   A
C1288     C1289 0.021       .   A
C1288     C1291 0.021       .   A
C1289     C1290 0.021       .   A
C1289     C1295 0.021       .   A
C1290     C1294 0.021       .   A
C1291     C1302 0.021       .   A
C1291     C1318 0.021       .   A
C1294     C1297 0.021       .   A
C1294     H1301 0.017       .   A
C1295     C1296 0.021       .   A
C1295     H1298 0.017       .   A
C1296     C1297 0.021       .   A
C1296     H1299 0.017       .   A
C1297     H1300 0.017       .   A
C1302     C1303 0.021       .   A
C1302     H1307 0.017       .   A
C1303     C1304 0.021       .   A
C1303     H1319 0.017       .   A
C1304     C1305 0.021       .   A
C1304     C1310 0.021       .   A
C1305     O1309 0.021       .   A
C1305     C1318 0.021       .   A
C1306     C1315 0.022       .   A
C1306     C1321 0.021       .   A
C1306     C1325 0.021       .   A
H1308     C1318 0.017       .   A
O1309     C1312 0.021       .   A
C1310     C1311 0.021       .   A
C1310     C1312 0.021       .   A
C1311     C1314 0.021       .   A
C1311     H1320 0.017       .   A
C1312     C1313 0.021       .   A
C1313     C1315 0.021       .   A
C1313     H1316 0.017       .   A
C1314     C1315 0.021       .   A
C1314     H1317 0.017       .   A
C1321     C1322 0.021       .   A
C1321     H1326 0.017       .   A
C1322     C1323 0.021       .   A
C1322     C1332 0.021       .   A
C1323     C1324 0.021       .   A
C1323     C1329 0.021       .   A
C1324     C1325 0.021       .   A
C1324     H1328 0.017       .   A
C1325     O1339 0.021       .   A
C1327     H1336 0.017       .   A
C1327     H1337 0.017       .   A
C1327     H1338 0.017       .   A
C1327     O1339 0.023       .   A
C1329     C1331 0.021       .   A
C1329     H1333 0.017       .   A
C1330     C1331 0.021       .   A
C1330     C1332 0.021       .   A
C1330     H1334 0.017       .   A
C1332     H1335 0.017       .   A
C1230     C1231 0.021       .   A
C1230     C1235 0.021       .   A
C1231     C1232 0.021       .   A
C1231     F1238 0.021       .   A
C1232     C1233 0.021       .   A
C1232     H1237 0.017       .   A
C1233     C1234 0.021       .   A
C1233     C1236 0.021       .   A
C1234     C1235 0.021       .   A
C1234     C1240 0.021       .   A
C1235     C1239 0.021       .   A
C1236     C1247 0.021       .   A
C1236     C1263 0.021       .   A
C1239     C1242 0.021       .   A
C1239     H1246 0.017       .   A
C1240     C1241 0.021       .   A
C1240     H1243 0.017       .   A
C1241     C1242 0.021       .   A
C1241     H1244 0.017       .   A
C1242     H1245 0.017       .   A
C1247     C1248 0.021       .   A
C1247     H1252 0.017       .   A
C1248     C1249 0.021       .   A
C1248     H1264 0.017       .   A
C1249     C1250 0.021       .   A
C1249     C1255 0.021       .   A
C1250     O1254 0.021       .   A
C1250     C1263 0.021       .   A
C1251     C1260 0.022       .   A
C1251     C1266 0.021       .   A
C1251     C1270 0.021       .   A
H1253     C1263 0.017       .   A
O1254     C1257 0.021       .   A
C1255     C1256 0.021       .   A
C1255     C1257 0.021       .   A
C1256     C1259 0.021       .   A
C1256     H1265 0.017       .   A
C1257     C1258 0.021       .   A
C1258     C1260 0.021       .   A
C1258     H1261 0.017       .   A
C1259     C1260 0.021       .   A
C1259     H1262 0.017       .   A
C1266     C1267 0.021       .   A
C1266     H1271 0.017       .   A
C1267     C1268 0.021       .   A
C1267     C1277 0.021       .   A
C1268     C1269 0.021       .   A
C1268     C1274 0.021       .   A
C1269     C1270 0.021       .   A
C1269     H1273 0.017       .   A
C1270     O1284 0.021       .   A
C1272     H1281 0.017       .   A
C1272     H1282 0.017       .   A
C1272     H1283 0.017       .   A
C1272     O1284 0.023       .   A
C1274     C1276 0.021       .   A
C1274     H1278 0.017       .   A
C1275     C1276 0.021       .   A
C1275     C1277 0.021       .   A
C1275     H1279 0.017       .   A
C1277     H1280 0.017       .   A
C1175     C1176 0.021       .   A
C1175     C1180 0.021       .   A
C1176     C1177 0.021       .   A
C1176     F1183 0.021       .   A
C1177     C1178 0.021       .   A
C1177     H1182 0.017       .   A
C1178     C1179 0.021       .   A
C1178     C1181 0.021       .   A
C1179     C1180 0.021       .   A
C1179     C1185 0.021       .   A
C1180     C1184 0.021       .   A
C1181     C1192 0.021       .   A
C1181     C1208 0.021       .   A
C1184     C1187 0.021       .   A
C1184     H1191 0.017       .   A
C1185     C1186 0.021       .   A
C1185     H1188 0.017       .   A
C1186     C1187 0.021       .   A
C1186     H1189 0.017       .   A
C1187     H1190 0.017       .   A
C1192     C1193 0.021       .   A
C1192     H1197 0.017       .   A
C1193     C1194 0.021       .   A
C1193     H1209 0.017       .   A
C1194     C1195 0.021       .   A
C1194     C1200 0.021       .   A
C1195     O1199 0.021       .   A
C1195     C1208 0.021       .   A
C1196     C1205 0.022       .   A
C1196     C1211 0.021       .   A
C1196     C1215 0.021       .   A
H1198     C1208 0.017       .   A
O1199     C1202 0.021       .   A
C1200     C1201 0.021       .   A
C1200     C1202 0.021       .   A
C1201     C1204 0.021       .   A
C1201     H1210 0.017       .   A
C1202     C1203 0.021       .   A
C1203     C1205 0.021       .   A
C1203     H1206 0.017       .   A
C1204     C1205 0.021       .   A
C1204     H1207 0.017       .   A
C1211     C1212 0.021       .   A
C1211     H1216 0.017       .   A
C1212     C1213 0.021       .   A
C1212     C1222 0.021       .   A
C1213     C1214 0.021       .   A
C1213     C1219 0.021       .   A
C1214     C1215 0.021       .   A
C1214     H1218 0.017       .   A
C1215     O1229 0.021       .   A
C1217     H1226 0.017       .   A
C1217     H1227 0.017       .   A
C1217     H1228 0.017       .   A
C1217     O1229 0.023       .   A
C1219     C1221 0.021       .   A
C1219     H1223 0.017       .   A
C1220     C1221 0.021       .   A
C1220     C1222 0.021       .   A
C1220     H1224 0.017       .   A
C1222     H1225 0.017       .   A
C1120     C1121 0.021       .   A
C1120     C1125 0.021       .   A
C1121     C1122 0.021       .   A
C1121     F1128 0.021       .   A
C1122     C1123 0.021       .   A
C1122     H1127 0.017       .   A
C1123     C1124 0.021       .   A
C1123     C1126 0.021       .   A
C1124     C1125 0.021       .   A
C1124     C1130 0.021       .   A
C1125     C1129 0.021       .   A
C1126     C1137 0.021       .   A
C1126     C1153 0.021       .   A
C1129     C1132 0.021       .   A
C1129     H1136 0.017       .   A
C1130     C1131 0.021       .   A
C1130     H1133 0.017       .   A
C1131     C1132 0.021       .   A
C1131     H1134 0.017       .   A
C1132     H1135 0.017       .   A
C1137     C1138 0.021       .   A
C1137     H1142 0.017       .   A
C1138     C1139 0.021       .   A
C1138     H1154 0.017       .   A
C1139     C1140 0.021       .   A
C1139     C1145 0.021       .   A
C1140     O1144 0.021       .   A
C1140     C1153 0.021       .   A
C1141     C1150 0.022       .   A
C1141     C1156 0.021       .   A
C1141     C1160 0.021       .   A
H1143     C1153 0.017       .   A
O1144     C1147 0.021       .   A
C1145     C1146 0.021       .   A
C1145     C1147 0.021       .   A
C1146     C1149 0.021       .   A
C1146     H1155 0.017       .   A
C1147     C1148 0.021       .   A
C1148     C1150 0.021       .   A
C1148     H1151 0.017       .   A
C1149     C1150 0.021       .   A
C1149     H1152 0.017       .   A
C1156     C1157 0.021       .   A
C1156     H1161 0.017       .   A
C1157     C1158 0.021       .   A
C1157     C1167 0.021       .   A
C1158     C1159 0.021       .   A
C1158     C1164 0.021       .   A
C1159     C1160 0.021       .   A
C1159     H1163 0.017       .   A
C1160     O1174 0.021       .   A
C1162     H1171 0.017       .   A
C1162     H1172 0.017       .   A
C1162     H1173 0.017       .   A
C1162     O1174 0.023       .   A
C1164     C1166 0.021       .   A
C1164     H1168 0.017       .   A
C1165     C1166 0.021       .   A
C1165     C1167 0.021       .   A
C1165     H1169 0.017       .   A
C1167     H1170 0.017       .   A
C1065     C1066 0.021       .   A
C1065     C1070 0.021       .   A
C1066     C1067 0.021       .   A
C1066     F1073 0.021       .   A
C1067     C1068 0.021       .   A
C1067     H1072 0.017       .   A
C1068     C1069 0.021       .   A
C1068     C1071 0.021       .   A
C1069     C1070 0.021       .   A
C1069     C1075 0.021       .   A
C1070     C1074 0.021       .   A
C1071     C1082 0.021       .   A
C1071     C1098 0.021       .   A
C1074     C1077 0.021       .   A
C1074     H1081 0.017       .   A
C1075     C1076 0.021       .   A
C1075     H1078 0.017       .   A
C1076     C1077 0.021       .   A
C1076     H1079 0.017       .   A
C1077     H1080 0.017       .   A
C1082     C1083 0.021       .   A
C1082     H1087 0.017       .   A
C1083     C1084 0.021       .   A
C1083     H1099 0.017       .   A
C1084     C1085 0.021       .   A
C1084     C1090 0.021       .   A
C1085     O1089 0.021       .   A
C1085     C1098 0.021       .   A
C1086     C1095 0.022       .   A
C1086     C1101 0.021       .   A
C1086     C1105 0.021       .   A
H1088     C1098 0.017       .   A
O1089     C1092 0.021       .   A
C1090     C1091 0.021       .   A
C1090     C1092 0.021       .   A
C1091     C1094 0.021       .   A
C1091     H1100 0.017       .   A
C1092     C1093 0.021       .   A
C1093     C1095 0.021       .   A
C1093     H1096 0.017       .   A
C1094     C1095 0.021       .   A
C1094     H1097 0.017       .   A
C1101     C1102 0.021       .   A
C1101     H1106 0.017       .   A
C1102     C1103 0.021       .   A
C1102     C1112 0.021       .   A
C1103     C1104 0.021       .   A
C1103     C1109 0.021       .   A
C1104     C1105 0.021       .   A
C1104     H1108 0.017       .   A
C1105     O1119 0.021       .   A
C1107     H1116 0.017       .   A
C1107     H1117 0.017       .   A
C1107     H1118 0.017       .   A
C1107     O1119 0.023       .   A
C1109     C1111 0.021       .   A
C1109     H1113 0.017       .   A
C1110     C1111 0.021       .   A
C1110     C1112 0.021       .   A
C1110     H1114 0.017       .   A
C1112     H1115 0.017       .   A
C1010     C1011 0.021       .   A
C1010     C1015 0.021       .   A
C1011     C1012 0.021       .   A
C1011     F1018 0.021       .   A
C1012     C1013 0.021       .   A
C1012     H1017 0.017       .   A
C1013     C1014 0.021       .   A
C1013     C1016 0.021       .   A
C1014     C1015 0.021       .   A
C1014     C1020 0.021       .   A
C1015     C1019 0.021       .   A
C1016     C1027 0.021       .   A
C1016     C1043 0.021       .   A
C1019     C1022 0.021       .   A
C1019     H1026 0.017       .   A
C1020     C1021 0.021       .   A
C1020     H1023 0.017       .   A
C1021     C1022 0.021       .   A
C1021     H1024 0.017       .   A
C1022     H1025 0.017       .   A
C1027     C1028 0.021       .   A
C1027     H1032 0.017       .   A
C1028     C1029 0.021       .   A
C1028     H1044 0.017       .   A
C1029     C1030 0.021       .   A
C1029     C1035 0.021       .   A
C1030     O1034 0.021       .   A
C1030     C1043 0.021       .   A
C1031     C1040 0.022       .   A
C1031     C1046 0.021       .   A
C1031     C1050 0.021       .   A
H1033     C1043 0.017       .   A
O1034     C1037 0.021       .   A
C1035     C1036 0.021       .   A
C1035     C1037 0.021       .   A
C1036     C1039 0.021       .   A
C1036     H1045 0.017       .   A
C1037     C1038 0.021       .   A
C1038     C1040 0.021       .   A
C1038     H1041 0.017       .   A
C1039     C1040 0.021       .   A
C1039     H1042 0.017       .   A
C1046     C1047 0.021       .   A
C1046     H1051 0.017       .   A
C1047     C1048 0.021       .   A
C1047     C1057 0.021       .   A
C1048     C1049 0.021       .   A
C1048     C1054 0.021       .   A
C1049     C1050 0.021       .   A
C1049     H1053 0.017       .   A
C1050     O1064 0.021       .   A
C1052     H1061 0.017       .   A
C1052     H1062 0.017       .   A
C1052     H1063 0.017       .   A
C1052     O1064 0.023       .   A
C1054     C1056 0.021       .   A
C1054     H1058 0.017       .   A
C1055     C1056 0.021       .   A
C1055     C1057 0.021       .   A
C1055     H1059 0.017       .   A
C1057     H1060 0.017       .   A
C955       C956 0.021       .   A
C955       C960 0.021       .   A
C956       C957 0.021       .   A
C956       F963 0.021       .   A
C957       C958 0.021       .   A
C957       H962 0.017       .   A
C958       C959 0.021       .   A
C958       C961 0.021       .   A
C959       C960 0.021       .   A
C959       C965 0.021       .   A
C960       C964 0.021       .   A
C961       C972 0.021       .   A
C961       C988 0.021       .   A
C964       C967 0.021       .   A
C964       H971 0.017       .   A
C965       C966 0.021       .   A
C965       H968 0.017       .   A
C966       C967 0.021       .   A
C966       H969 0.017       .   A
C967       H970 0.017       .   A
C972       C973 0.021       .   A
C972       H977 0.017       .   A
C973       C974 0.021       .   A
C973       H989 0.017       .   A
C974       C975 0.021       .   A
C974       C980 0.021       .   A
C975       O979 0.021       .   A
C975       C988 0.021       .   A
C976       C985 0.022       .   A
C976       C991 0.021       .   A
C976       C995 0.021       .   A
H978       C988 0.017       .   A
O979       C982 0.021       .   A
C980       C981 0.021       .   A
C980       C982 0.021       .   A
C981       C984 0.021       .   A
C981       H990 0.017       .   A
C982       C983 0.021       .   A
C983       C985 0.021       .   A
C983       H986 0.017       .   A
C984       C985 0.021       .   A
C984       H987 0.017       .   A
C991       C992 0.021       .   A
C991       H996 0.017       .   A
C992       C993 0.021       .   A
C992      C1002 0.021       .   A
C993       C994 0.021       .   A
C993       C999 0.021       .   A
C994       C995 0.021       .   A
C994       H998 0.017       .   A
C995      O1009 0.021       .   A
C997      H1006 0.017       .   A
C997      H1007 0.017       .   A
C997      H1008 0.017       .   A
C997      O1009 0.023       .   A
C999      C1001 0.021       .   A
C999      H1003 0.017       .   A
C1000     C1001 0.021       .   A
C1000     C1002 0.021       .   A
C1000     H1004 0.017       .   A
C1002     H1005 0.017       .   A
C900       C901 0.021       .   A
C900       C905 0.021       .   A
C901       C902 0.021       .   A
C901       F908 0.021       .   A
C902       C903 0.021       .   A
C902       H907 0.017       .   A
C903       C904 0.021       .   A
C903       C906 0.021       .   A
C904       C905 0.021       .   A
C904       C910 0.021       .   A
C905       C909 0.021       .   A
C906       C917 0.021       .   A
C906       C933 0.021       .   A
C909       C912 0.021       .   A
C909       H916 0.017       .   A
C910       C911 0.021       .   A
C910       H913 0.017       .   A
C911       C912 0.021       .   A
C911       H914 0.017       .   A
C912       H915 0.017       .   A
C917       C918 0.021       .   A
C917       H922 0.017       .   A
C918       C919 0.021       .   A
C918       H934 0.017       .   A
C919       C920 0.021       .   A
C919       C925 0.021       .   A
C920       O924 0.021       .   A
C920       C933 0.021       .   A
C921       C930 0.022       .   A
C921       C936 0.021       .   A
C921       C940 0.021       .   A
H923       C933 0.017       .   A
O924       C927 0.021       .   A
C925       C926 0.021       .   A
C925       C927 0.021       .   A
C926       C929 0.021       .   A
C926       H935 0.017       .   A
C927       C928 0.021       .   A
C928       C930 0.021       .   A
C928       H931 0.017       .   A
C929       C930 0.021       .   A
C929       H932 0.017       .   A
C936       C937 0.021       .   A
C936       H941 0.017       .   A
C937       C938 0.021       .   A
C937       C947 0.021       .   A
C938       C939 0.021       .   A
C938       C944 0.021       .   A
C939       C940 0.021       .   A
C939       H943 0.017       .   A
C940       O954 0.021       .   A
C942       H951 0.017       .   A
C942       H952 0.017       .   A
C942       H953 0.017       .   A
C942       O954 0.023       .   A
C944       C946 0.021       .   A
C944       H948 0.017       .   A
C945       C946 0.021       .   A
C945       C947 0.021       .   A
C945       H949 0.017       .   A
C947       H950 0.017       .   A
C845       C846 0.021       .   A
C845       C850 0.021       .   A
C846       C847 0.021       .   A
C846       F853 0.021       .   A
C847       C848 0.021       .   A
C847       H852 0.017       .   A
C848       C849 0.021       .   A
C848       C851 0.021       .   A
C849       C850 0.021       .   A
C849       C855 0.021       .   A
C850       C854 0.021       .   A
C851       C862 0.021       .   A
C851       C878 0.021       .   A
C854       C857 0.021       .   A
C854       H861 0.017       .   A
C855       C856 0.021       .   A
C855       H858 0.017       .   A
C856       C857 0.021       .   A
C856       H859 0.017       .   A
C857       H860 0.017       .   A
C862       C863 0.021       .   A
C862       H867 0.017       .   A
C863       C864 0.021       .   A
C863       H879 0.017       .   A
C864       C865 0.021       .   A
C864       C870 0.021       .   A
C865       O869 0.021       .   A
C865       C878 0.021       .   A
C866       C875 0.022       .   A
C866       C881 0.021       .   A
C866       C885 0.021       .   A
H868       C878 0.017       .   A
O869       C872 0.021       .   A
C870       C871 0.021       .   A
C870       C872 0.021       .   A
C871       C874 0.021       .   A
C871       H880 0.017       .   A
C872       C873 0.021       .   A
C873       C875 0.021       .   A
C873       H876 0.017       .   A
C874       C875 0.021       .   A
C874       H877 0.017       .   A
C881       C882 0.021       .   A
C881       H886 0.017       .   A
C882       C883 0.021       .   A
C882       C892 0.021       .   A
C883       C884 0.021       .   A
C883       C889 0.021       .   A
C884       C885 0.021       .   A
C884       H888 0.017       .   A
C885       O899 0.021       .   A
C887       H896 0.017       .   A
C887       H897 0.017       .   A
C887       H898 0.017       .   A
C887       O899 0.023       .   A
C889       C891 0.021       .   A
C889       H893 0.017       .   A
C890       C891 0.021       .   A
C890       C892 0.021       .   A
C890       H894 0.017       .   A
C892       H895 0.017       .   A
C790       C791 0.021       .   A
C790       C795 0.021       .   A
C791       C792 0.021       .   A
C791       F798 0.021       .   A
C792       C793 0.021       .   A
C792       H797 0.017       .   A
C793       C794 0.021       .   A
C793       C796 0.021       .   A
C794       C795 0.021       .   A
C794       C800 0.021       .   A
C795       C799 0.021       .   A
C796       C807 0.021       .   A
C796       C823 0.021       .   A
C799       C802 0.021       .   A
C799       H806 0.017       .   A
C800       C801 0.021       .   A
C800       H803 0.017       .   A
C801       C802 0.021       .   A
C801       H804 0.017       .   A
C802       H805 0.017       .   A
C807       C808 0.021       .   A
C807       H812 0.017       .   A
C808       C809 0.021       .   A
C808       H824 0.017       .   A
C809       C810 0.021       .   A
C809       C815 0.021       .   A
C810       O814 0.021       .   A
C810       C823 0.021       .   A
C811       C820 0.022       .   A
C811       C826 0.021       .   A
C811       C830 0.021       .   A
H813       C823 0.017       .   A
O814       C817 0.021       .   A
C815       C816 0.021       .   A
C815       C817 0.021       .   A
C816       C819 0.021       .   A
C816       H825 0.017       .   A
C817       C818 0.021       .   A
C818       C820 0.021       .   A
C818       H821 0.017       .   A
C819       C820 0.021       .   A
C819       H822 0.017       .   A
C826       C827 0.021       .   A
C826       H831 0.017       .   A
C827       C828 0.021       .   A
C827       C837 0.021       .   A
C828       C829 0.021       .   A
C828       C834 0.021       .   A
C829       C830 0.021       .   A
C829       H833 0.017       .   A
C830       O844 0.021       .   A
C832       H841 0.017       .   A
C832       H842 0.017       .   A
C832       H843 0.017       .   A
C832       O844 0.023       .   A
C834       C836 0.021       .   A
C834       H838 0.017       .   A
C835       C836 0.021       .   A
C835       C837 0.021       .   A
C835       H839 0.017       .   A
C837       H840 0.017       .   A
C735       C736 0.021       .   A
C735       C740 0.021       .   A
C736       C737 0.021       .   A
C736       F743 0.021       .   A
C737       C738 0.021       .   A
C737       H742 0.017       .   A
C738       C739 0.021       .   A
C738       C741 0.021       .   A
C739       C740 0.021       .   A
C739       C745 0.021       .   A
C740       C744 0.021       .   A
C741       C752 0.021       .   A
C741       C768 0.021       .   A
C744       C747 0.021       .   A
C744       H751 0.017       .   A
C745       C746 0.021       .   A
C745       H748 0.017       .   A
C746       C747 0.021       .   A
C746       H749 0.017       .   A
C747       H750 0.017       .   A
C752       C753 0.021       .   A
C752       H757 0.017       .   A
C753       C754 0.021       .   A
C753       H769 0.017       .   A
C754       C755 0.021       .   A
C754       C760 0.021       .   A
C755       O759 0.021       .   A
C755       C768 0.021       .   A
C756       C765 0.022       .   A
C756       C771 0.021       .   A
C756       C775 0.021       .   A
H758       C768 0.017       .   A
O759       C762 0.021       .   A
C760       C761 0.021       .   A
C760       C762 0.021       .   A
C761       C764 0.021       .   A
C761       H770 0.017       .   A
C762       C763 0.021       .   A
C763       C765 0.021       .   A
C763       H766 0.017       .   A
C764       C765 0.021       .   A
C764       H767 0.017       .   A
C771       C772 0.021       .   A
C771       H776 0.017       .   A
C772       C773 0.021       .   A
C772       C782 0.021       .   A
C773       C774 0.021       .   A
C773       C779 0.021       .   A
C774       C775 0.021       .   A
C774       H778 0.017       .   A
C775       O789 0.021       .   A
C777       H786 0.017       .   A
C777       H787 0.017       .   A
C777       H788 0.017       .   A
C777       O789 0.023       .   A
C779       C781 0.021       .   A
C779       H783 0.017       .   A
C780       C781 0.021       .   A
C780       C782 0.021       .   A
C780       H784 0.017       .   A
C782       H785 0.017       .   A
C680       C681 0.021       .   A
C680       C685 0.021       .   A
C681       C682 0.021       .   A
C681       F688 0.021       .   A
C682       C683 0.021       .   A
C682       H687 0.017       .   A
C683       C684 0.021       .   A
C683       C686 0.021       .   A
C684       C685 0.021       .   A
C684       C690 0.021       .   A
C685       C689 0.021       .   A
C686       C697 0.021       .   A
C686       C713 0.021       .   A
C689       C692 0.021       .   A
C689       H696 0.017       .   A
C690       C691 0.021       .   A
C690       H693 0.017       .   A
C691       C692 0.021       .   A
C691       H694 0.017       .   A
C692       H695 0.017       .   A
C697       C698 0.021       .   A
C697       H702 0.017       .   A
C698       C699 0.021       .   A
C698       H714 0.017       .   A
C699       C700 0.021       .   A
C699       C705 0.021       .   A
C700       O704 0.021       .   A
C700       C713 0.021       .   A
C701       C710 0.022       .   A
C701       C716 0.021       .   A
C701       C720 0.021       .   A
H703       C713 0.017       .   A
O704       C707 0.021       .   A
C705       C706 0.021       .   A
C705       C707 0.021       .   A
C706       C709 0.021       .   A
C706       H715 0.017       .   A
C707       C708 0.021       .   A
C708       C710 0.021       .   A
C708       H711 0.017       .   A
C709       C710 0.021       .   A
C709       H712 0.017       .   A
C716       C717 0.021       .   A
C716       H721 0.017       .   A
C717       C718 0.021       .   A
C717       C727 0.021       .   A
C718       C719 0.021       .   A
C718       C724 0.021       .   A
C719       C720 0.021       .   A
C719       H723 0.017       .   A
C720       O734 0.021       .   A
C722       H731 0.017       .   A
C722       H732 0.017       .   A
C722       H733 0.017       .   A
C722       O734 0.023       .   A
C724       C726 0.021       .   A
C724       H728 0.017       .   A
C725       C726 0.021       .   A
C725       C727 0.021       .   A
C725       H729 0.017       .   A
C727       H730 0.017       .   A
C625       C626 0.021       .   A
C625       C630 0.021       .   A
C626       C627 0.021       .   A
C626       F633 0.021       .   A
C627       C628 0.021       .   A
C627       H632 0.017       .   A
C628       C629 0.021       .   A
C628       C631 0.021       .   A
C629       C630 0.021       .   A
C629       C635 0.021       .   A
C630       C634 0.021       .   A
C631       C642 0.021       .   A
C631       C658 0.021       .   A
C634       C637 0.021       .   A
C634       H641 0.017       .   A
C635       C636 0.021       .   A
C635       H638 0.017       .   A
C636       C637 0.021       .   A
C636       H639 0.017       .   A
C637       H640 0.017       .   A
C642       C643 0.021       .   A
C642       H647 0.017       .   A
C643       C644 0.021       .   A
C643       H659 0.017       .   A
C644       C645 0.021       .   A
C644       C650 0.021       .   A
C645       O649 0.021       .   A
C645       C658 0.021       .   A
C646       C655 0.022       .   A
C646       C661 0.021       .   A
C646       C665 0.021       .   A
H648       C658 0.017       .   A
O649       C652 0.021       .   A
C650       C651 0.021       .   A
C650       C652 0.021       .   A
C651       C654 0.021       .   A
C651       H660 0.017       .   A
C652       C653 0.021       .   A
C653       C655 0.021       .   A
C653       H656 0.017       .   A
C654       C655 0.021       .   A
C654       H657 0.017       .   A
C661       C662 0.021       .   A
C661       H666 0.017       .   A
C662       C663 0.021       .   A
C662       C672 0.021       .   A
C663       C664 0.021       .   A
C663       C669 0.021       .   A
C664       C665 0.021       .   A
C664       H668 0.017       .   A
C665       O679 0.021       .   A
C667       H676 0.017       .   A
C667       H677 0.017       .   A
C667       H678 0.017       .   A
C667       O679 0.023       .   A
C669       C671 0.021       .   A
C669       H673 0.017       .   A
C670       C671 0.021       .   A
C670       C672 0.021       .   A
C670       H674 0.017       .   A
C672       H675 0.017       .   A
C570       C571 0.021       .   A
C570       C575 0.021       .   A
C571       C572 0.021       .   A
C571       F578 0.021       .   A
C572       C573 0.021       .   A
C572       H577 0.017       .   A
C573       C574 0.021       .   A
C573       C576 0.021       .   A
C574       C575 0.021       .   A
C574       C580 0.021       .   A
C575       C579 0.021       .   A
C576       C587 0.021       .   A
C576       C603 0.021       .   A
C579       C582 0.021       .   A
C579       H586 0.017       .   A
C580       C581 0.021       .   A
C580       H583 0.017       .   A
C581       C582 0.021       .   A
C581       H584 0.017       .   A
C582       H585 0.017       .   A
C587       C588 0.021       .   A
C587       H592 0.017       .   A
C588       C589 0.021       .   A
C588       H604 0.017       .   A
C589       C590 0.021       .   A
C589       C595 0.021       .   A
C590       O594 0.021       .   A
C590       C603 0.021       .   A
C591       C600 0.022       .   A
C591       C606 0.021       .   A
C591       C610 0.021       .   A
H593       C603 0.017       .   A
O594       C597 0.021       .   A
C595       C596 0.021       .   A
C595       C597 0.021       .   A
C596       C599 0.021       .   A
C596       H605 0.017       .   A
C597       C598 0.021       .   A
C598       C600 0.021       .   A
C598       H601 0.017       .   A
C599       C600 0.021       .   A
C599       H602 0.017       .   A
C606       C607 0.021       .   A
C606       H611 0.017       .   A
C607       C608 0.021       .   A
C607       C617 0.021       .   A
C608       C609 0.021       .   A
C608       C614 0.021       .   A
C609       C610 0.021       .   A
C609       H613 0.017       .   A
C610       O624 0.021       .   A
C612       H621 0.017       .   A
C612       H622 0.017       .   A
C612       H623 0.017       .   A
C612       O624 0.023       .   A
C614       C616 0.021       .   A
C614       H618 0.017       .   A
C615       C616 0.021       .   A
C615       C617 0.021       .   A
C615       H619 0.017       .   A
C617       H620 0.017       .   A
C515       C516 0.021       .   A
C515       C520 0.021       .   A
C516       C517 0.021       .   A
C516       F523 0.021       .   A
C517       C518 0.021       .   A
C517       H522 0.017       .   A
C518       C519 0.021       .   A
C518       C521 0.021       .   A
C519       C520 0.021       .   A
C519       C525 0.021       .   A
C520       C524 0.021       .   A
C521       C532 0.021       .   A
C521       C548 0.021       .   A
C524       C527 0.021       .   A
C524       H531 0.017       .   A
C525       C526 0.021       .   A
C525       H528 0.017       .   A
C526       C527 0.021       .   A
C526       H529 0.017       .   A
C527       H530 0.017       .   A
C532       C533 0.021       .   A
C532       H537 0.017       .   A
C533       C534 0.021       .   A
C533       H549 0.017       .   A
C534       C535 0.021       .   A
C534       C540 0.021       .   A
C535       O539 0.021       .   A
C535       C548 0.021       .   A
C536       C545 0.022       .   A
C536       C551 0.021       .   A
C536       C555 0.021       .   A
H538       C548 0.017       .   A
O539       C542 0.021       .   A
C540       C541 0.021       .   A
C540       C542 0.021       .   A
C541       C544 0.021       .   A
C541       H550 0.017       .   A
C542       C543 0.021       .   A
C543       C545 0.021       .   A
C543       H546 0.017       .   A
C544       C545 0.021       .   A
C544       H547 0.017       .   A
C551       C552 0.021       .   A
C551       H556 0.017       .   A
C552       C553 0.021       .   A
C552       C562 0.021       .   A
C553       C554 0.021       .   A
C553       C559 0.021       .   A
C554       C555 0.021       .   A
C554       H558 0.017       .   A
C555       O569 0.021       .   A
C557       H566 0.017       .   A
C557       H567 0.017       .   A
C557       H568 0.017       .   A
C557       O569 0.023       .   A
C559       C561 0.021       .   A
C559       H563 0.017       .   A
C560       C561 0.021       .   A
C560       C562 0.021       .   A
C560       H564 0.017       .   A
C562       H565 0.017       .   A
C460       C461 0.021       .   A
C460       C465 0.021       .   A
C461       C462 0.021       .   A
C461       F468 0.021       .   A
C462       C463 0.021       .   A
C462       H467 0.017       .   A
C463       C464 0.021       .   A
C463       C466 0.021       .   A
C464       C465 0.021       .   A
C464       C470 0.021       .   A
C465       C469 0.021       .   A
C466       C477 0.021       .   A
C466       C493 0.021       .   A
C469       C472 0.021       .   A
C469       H476 0.017       .   A
C470       C471 0.021       .   A
C470       H473 0.017       .   A
C471       C472 0.021       .   A
C471       H474 0.017       .   A
C472       H475 0.017       .   A
C477       C478 0.021       .   A
C477       H482 0.017       .   A
C478       C479 0.021       .   A
C478       H494 0.017       .   A
C479       C480 0.021       .   A
C479       C485 0.021       .   A
C480       O484 0.021       .   A
C480       C493 0.021       .   A
C481       C490 0.022       .   A
C481       C496 0.021       .   A
C481       C500 0.021       .   A
H483       C493 0.017       .   A
O484       C487 0.021       .   A
C485       C486 0.021       .   A
C485       C487 0.021       .   A
C486       C489 0.021       .   A
C486       H495 0.017       .   A
C487       C488 0.021       .   A
C488       C490 0.021       .   A
C488       H491 0.017       .   A
C489       C490 0.021       .   A
C489       H492 0.017       .   A
C496       C497 0.021       .   A
C496       H501 0.017       .   A
C497       C498 0.021       .   A
C497       C507 0.021       .   A
C498       C499 0.021       .   A
C498       C504 0.021       .   A
C499       C500 0.021       .   A
C499       H503 0.017       .   A
C500       O514 0.021       .   A
C502       H511 0.017       .   A
C502       H512 0.017       .   A
C502       H513 0.017       .   A
C502       O514 0.023       .   A
C504       C506 0.021       .   A
C504       H508 0.017       .   A
C505       C506 0.021       .   A
C505       C507 0.021       .   A
C505       H509 0.017       .   A
C507       H510 0.017       .   A
C405       C406 0.021       .   A
C405       C410 0.021       .   A
C406       C407 0.021       .   A
C406       F413 0.021       .   A
C407       C408 0.021       .   A
C407       H412 0.017       .   A
C408       C409 0.021       .   A
C408       C411 0.021       .   A
C409       C410 0.021       .   A
C409       C415 0.021       .   A
C410       C414 0.021       .   A
C411       C422 0.021       .   A
C411       C438 0.021       .   A
C414       C417 0.021       .   A
C414       H421 0.017       .   A
C415       C416 0.021       .   A
C415       H418 0.017       .   A
C416       C417 0.021       .   A
C416       H419 0.017       .   A
C417       H420 0.017       .   A
C422       C423 0.021       .   A
C422       H427 0.017       .   A
C423       C424 0.021       .   A
C423       H439 0.017       .   A
C424       C425 0.021       .   A
C424       C430 0.021       .   A
C425       O429 0.021       .   A
C425       C438 0.021       .   A
C426       C435 0.022       .   A
C426       C441 0.021       .   A
C426       C445 0.021       .   A
H428       C438 0.017       .   A
O429       C432 0.021       .   A
C430       C431 0.021       .   A
C430       C432 0.021       .   A
C431       C434 0.021       .   A
C431       H440 0.017       .   A
C432       C433 0.021       .   A
C433       C435 0.021       .   A
C433       H436 0.017       .   A
C434       C435 0.021       .   A
C434       H437 0.017       .   A
C441       C442 0.021       .   A
C441       H446 0.017       .   A
C442       C443 0.021       .   A
C442       C452 0.021       .   A
C443       C444 0.021       .   A
C443       C449 0.021       .   A
C444       C445 0.021       .   A
C444       H448 0.017       .   A
C445       O459 0.021       .   A
C447       H456 0.017       .   A
C447       H457 0.017       .   A
C447       H458 0.017       .   A
C447       O459 0.023       .   A
C449       C451 0.021       .   A
C449       H453 0.017       .   A
C450       C451 0.021       .   A
C450       C452 0.021       .   A
C450       H454 0.017       .   A
C452       H455 0.017       .   A
C350       C351 0.021       .   A
C350       C355 0.021       .   A
C351       C352 0.021       .   A
C351       F358 0.021       .   A
C352       C353 0.021       .   A
C352       H357 0.017       .   A
C353       C354 0.021       .   A
C353       C356 0.021       .   A
C354       C355 0.021       .   A
C354       C360 0.021       .   A
C355       C359 0.021       .   A
C356       C367 0.021       .   A
C356       C383 0.021       .   A
C359       C362 0.021       .   A
C359       H366 0.017       .   A
C360       C361 0.021       .   A
C360       H363 0.017       .   A
C361       C362 0.021       .   A
C361       H364 0.017       .   A
C362       H365 0.017       .   A
C367       C368 0.021       .   A
C367       H372 0.017       .   A
C368       C369 0.021       .   A
C368       H384 0.017       .   A
C369       C370 0.021       .   A
C369       C375 0.021       .   A
C370       O374 0.021       .   A
C370       C383 0.021       .   A
C371       C380 0.022       .   A
C371       C386 0.021       .   A
C371       C390 0.021       .   A
H373       C383 0.017       .   A
O374       C377 0.021       .   A
C375       C376 0.021       .   A
C375       C377 0.021       .   A
C376       C379 0.021       .   A
C376       H385 0.017       .   A
C377       C378 0.021       .   A
C378       C380 0.021       .   A
C378       H381 0.017       .   A
C379       C380 0.021       .   A
C379       H382 0.017       .   A
C386       C387 0.021       .   A
C386       H391 0.017       .   A
C387       C388 0.021       .   A
C387       C397 0.021       .   A
C388       C389 0.021       .   A
C388       C394 0.021       .   A
C389       C390 0.021       .   A
C389       H393 0.017       .   A
C390       O404 0.021       .   A
C392       H401 0.017       .   A
C392       H402 0.017       .   A
C392       H403 0.017       .   A
C392       O404 0.023       .   A
C394       C396 0.021       .   A
C394       H398 0.017       .   A
C395       C396 0.021       .   A
C395       C397 0.021       .   A
C395       H399 0.017       .   A
C397       H400 0.017       .   A
C295       C296 0.021       .   A
C295       C300 0.021       .   A
C296       C297 0.021       .   A
C296       F303 0.021       .   A
C297       C298 0.021       .   A
C297       H302 0.017       .   A
C298       C299 0.021       .   A
C298       C301 0.021       .   A
C299       C300 0.021       .   A
C299       C305 0.021       .   A
C300       C304 0.021       .   A
C301       C312 0.021       .   A
C301       C328 0.021       .   A
C304       C307 0.021       .   A
C304       H311 0.017       .   A
C305       C306 0.021       .   A
C305       H308 0.017       .   A
C306       C307 0.021       .   A
C306       H309 0.017       .   A
C307       H310 0.017       .   A
C312       C313 0.021       .   A
C312       H317 0.017       .   A
C313       C314 0.021       .   A
C313       H329 0.017       .   A
C314       C315 0.021       .   A
C314       C320 0.021       .   A
C315       O319 0.021       .   A
C315       C328 0.021       .   A
C316       C325 0.022       .   A
C316       C331 0.021       .   A
C316       C335 0.021       .   A
H318       C328 0.017       .   A
O319       C322 0.021       .   A
C320       C321 0.021       .   A
C320       C322 0.021       .   A
C321       C324 0.021       .   A
C321       H330 0.017       .   A
C322       C323 0.021       .   A
C323       C325 0.021       .   A
C323       H326 0.017       .   A
C324       C325 0.021       .   A
C324       H327 0.017       .   A
C331       C332 0.021       .   A
C331       H336 0.017       .   A
C332       C333 0.021       .   A
C332       C342 0.021       .   A
C333       C334 0.021       .   A
C333       C339 0.021       .   A
C334       C335 0.021       .   A
C334       H338 0.017       .   A
C335       O349 0.021       .   A
C337       H346 0.017       .   A
C337       H347 0.017       .   A
C337       H348 0.017       .   A
C337       O349 0.023       .   A
C339       C341 0.021       .   A
C339       H343 0.017       .   A
C340       C341 0.021       .   A
C340       C342 0.021       .   A
C340       H344 0.017       .   A
C342       H345 0.017       .   A
C240       C241 0.021       .   A
C240       C245 0.021       .   A
C241       C242 0.021       .   A
C241       F248 0.021       .   A
C242       C243 0.021       .   A
C242       H247 0.017       .   A
C243       C244 0.021       .   A
C243       C246 0.021       .   A
C244       C245 0.021       .   A
C244       C250 0.021       .   A
C245       C249 0.021       .   A
C246       C257 0.021       .   A
C246       C273 0.021       .   A
C249       C252 0.021       .   A
C249       H256 0.017       .   A
C250       C251 0.021       .   A
C250       H253 0.017       .   A
C251       C252 0.021       .   A
C251       H254 0.017       .   A
C252       H255 0.017       .   A
C257       C258 0.021       .   A
C257       H262 0.017       .   A
C258       C259 0.021       .   A
C258       H274 0.017       .   A
C259       C260 0.021       .   A
C259       C265 0.021       .   A
C260       O264 0.021       .   A
C260       C273 0.021       .   A
C261       C270 0.022       .   A
C261       C276 0.021       .   A
C261       C280 0.021       .   A
H263       C273 0.017       .   A
O264       C267 0.021       .   A
C265       C266 0.021       .   A
C265       C267 0.021       .   A
C266       C269 0.021       .   A
C266       H275 0.017       .   A
C267       C268 0.021       .   A
C268       C270 0.021       .   A
C268       H271 0.017       .   A
C269       C270 0.021       .   A
C269       H272 0.017       .   A
C276       C277 0.021       .   A
C276       H281 0.017       .   A
C277       C278 0.021       .   A
C277       C287 0.021       .   A
C278       C279 0.021       .   A
C278       C284 0.021       .   A
C279       C280 0.021       .   A
C279       H283 0.017       .   A
C280       O294 0.021       .   A
C282       H291 0.017       .   A
C282       H292 0.017       .   A
C282       H293 0.017       .   A
C282       O294 0.023       .   A
C284       C286 0.021       .   A
C284       H288 0.017       .   A
C285       C286 0.021       .   A
C285       C287 0.021       .   A
C285       H289 0.017       .   A
C287       H290 0.017       .   A
C185       C186 0.021       .   A
C185       C190 0.021       .   A
C186       C187 0.021       .   A
C186       F193 0.021       .   A
C187       C188 0.021       .   A
C187       H192 0.017       .   A
C188       C189 0.021       .   A
C188       C191 0.021       .   A
C189       C190 0.021       .   A
C189       C195 0.021       .   A
C190       C194 0.021       .   A
C191       C202 0.021       .   A
C191       C218 0.021       .   A
C194       C197 0.021       .   A
C194       H201 0.017       .   A
C195       C196 0.021       .   A
C195       H198 0.017       .   A
C196       C197 0.021       .   A
C196       H199 0.017       .   A
C197       H200 0.017       .   A
C202       C203 0.021       .   A
C202       H207 0.017       .   A
C203       C204 0.021       .   A
C203       H219 0.017       .   A
C204       C205 0.021       .   A
C204       C210 0.021       .   A
C205       O209 0.021       .   A
C205       C218 0.021       .   A
C206       C215 0.022       .   A
C206       C221 0.021       .   A
C206       C225 0.021       .   A
H208       C218 0.017       .   A
O209       C212 0.021       .   A
C210       C211 0.021       .   A
C210       C212 0.021       .   A
C211       C214 0.021       .   A
C211       H220 0.017       .   A
C212       C213 0.021       .   A
C213       C215 0.021       .   A
C213       H216 0.017       .   A
C214       C215 0.021       .   A
C214       H217 0.017       .   A
C221       C222 0.021       .   A
C221       H226 0.017       .   A
C222       C223 0.021       .   A
C222       C232 0.021       .   A
C223       C224 0.021       .   A
C223       C229 0.021       .   A
C224       C225 0.021       .   A
C224       H228 0.017       .   A
C225       O239 0.021       .   A
C227       H236 0.017       .   A
C227       H237 0.017       .   A
C227       H238 0.017       .   A
C227       O239 0.023       .   A
C229       C231 0.021       .   A
C229       H233 0.017       .   A
C230       C231 0.021       .   A
C230       C232 0.021       .   A
C230       H234 0.017       .   A
C232       H235 0.017       .   A
