data_pcu_v1-6c_Zn_1_Ch_1-7_fer_tobacco
_audit_creation_date              2021-04-07
_audit_creation_method            'tobacco_3.0'
_symmetry_space_group_name_H-M    'P1'
_symmetry_Int_Tables_number       1
_symmetry_cell_setting            triclinic
loop_
_symmetry_equiv_pos_as_xyz
  x,y,z
_cell_length_a                    51.11512506500186
_cell_length_b                    51.11512506500186
_cell_length_c                    51.11512506500186
_cell_angle_alpha                 90.0
_cell_angle_beta                  90.0
_cell_angle_gamma                 90.0
loop_
_atom_site_label
_atom_site_type_symbol
_atom_site_fract_x
_atom_site_fract_y
_atom_site_fract_z
_atom_site_charge
Zn1       Zn   -0.0219347991   -0.0219347991    0.0219347991          1.4972
Zn2       Zn    0.0219347991    0.0219347991    0.0219347991          1.4936
Zn3       Zn    0.0219347991   -0.0219347991   -0.0219347991          1.4911
Zn4       Zn   -0.0219347991    0.0219347991   -0.0219347991          1.4948
O5         O    0.0000000000    0.0000000000    0.0000000000         -2.2813
O6         O   -0.0161204731   -0.0161204731    0.0586245264         -1.1876
O7         O    0.0586245264    0.0161204731    0.0161204731         -1.1858
O8         O    0.0161204731   -0.0586245264   -0.0161204731          -1.181
O9         O    0.0161204731    0.0161204731    0.0586245264         -1.1878
O10        O   -0.0161204731   -0.0586245264    0.0161204731         -1.1837
O11        O    0.0586245264   -0.0161204731   -0.0161204731         -1.1896
O12        O   -0.0161204731    0.0161204731   -0.0586245264         -1.1835
O13        O    0.0161204731    0.0586245264    0.0161204731         -1.1911
O14        O    0.0161204731   -0.0161204731   -0.0586245264          -1.185
O15        O   -0.0161204731    0.0586245264   -0.0161204731         -1.1896
O16        O   -0.0586245264    0.0161204731   -0.0161204731         -1.1887
O17        O   -0.0586245264   -0.0161204731    0.0161204731         -1.1866
C18        C   -0.0000000000   -0.0000000000    0.0700927562          0.3313
C19        C    0.0700927562   -0.0000000000   -0.0000000000          0.3362
C20        C   -0.0000000000   -0.0700927562    0.0000000000          0.3258
C21        C    0.0000000000    0.0000000000   -0.0700927562          0.3295
C22        C    0.0000000000    0.0700927562   -0.0000000000          0.3409
C23        C   -0.0700927562    0.0000000000    0.0000000000          0.3314
Zn24      Zn    0.9780652009    0.0219347991    0.4780652009          1.4972
Zn25      Zn    1.0219347991   -0.0219347991    0.4780652009          1.4936
Zn26      Zn    1.0219347991    0.0219347991    0.5219347991          1.4911
Zn27      Zn    0.9780652009   -0.0219347991    0.5219347991          1.4948
O28        O    1.0000000000    0.0000000000    0.5000000000         -2.2813
O29        O    0.9838795269    0.0161204731    0.4413754736         -1.1876
O30        O    1.0586245264   -0.0161204731    0.4838795269         -1.1858
O31        O    1.0161204731    0.0586245264    0.5161204731          -1.181
O32        O    1.0161204731   -0.0161204731    0.4413754736         -1.1878
O33        O    0.9838795269    0.0586245264    0.4838795269         -1.1837
O34        O    1.0586245264    0.0161204731    0.5161204731         -1.1896
O35        O    0.9838795269   -0.0161204731    0.5586245264         -1.1835
O36        O    1.0161204731   -0.0586245264    0.4838795269         -1.1911
O37        O    1.0161204731    0.0161204731    0.5586245264          -1.185
O38        O    0.9838795269   -0.0586245264    0.5161204731         -1.1896
O39        O    0.9413754736   -0.0161204731    0.5161204731         -1.1887
O40        O    0.9413754736    0.0161204731    0.4838795269         -1.1866
C41        C    1.0000000000    0.0000000000    0.4299072438          0.3313
C42        C    1.0700927562    0.0000000000    0.5000000000          0.3362
C43        C    1.0000000000    0.0700927562    0.5000000000          0.3258
C44        C    1.0000000000    0.0000000000    0.5700927562          0.3295
C45        C    1.0000000000   -0.0700927562    0.5000000000          0.3409
C46        C    0.9299072438    0.0000000000    0.5000000000          0.3314
Zn47      Zn    1.0219347991    0.4780652009   -0.0219347991          1.4972
Zn48      Zn    0.9780652009    0.4780652009    0.0219347991          1.4936
Zn49      Zn    1.0219347991    0.5219347991    0.0219347991          1.4911
Zn50      Zn    0.9780652009    0.5219347991   -0.0219347991          1.4948
O51        O    1.0000000000    0.5000000000    0.0000000000         -2.2813
O52        O    1.0161204731    0.4413754736   -0.0161204731         -1.1876
O53        O    0.9838795269    0.4838795269    0.0586245264         -1.1858
O54        O    1.0586245264    0.5161204731    0.0161204731          -1.181
O55        O    0.9838795269    0.4413754736    0.0161204731         -1.1878
O56        O    1.0586245264    0.4838795269   -0.0161204731         -1.1837
O57        O    1.0161204731    0.5161204731    0.0586245264         -1.1896
O58        O    0.9838795269    0.5586245264   -0.0161204731         -1.1835
O59        O    0.9413754736    0.4838795269    0.0161204731         -1.1911
O60        O    1.0161204731    0.5586245264    0.0161204731          -1.185
O61        O    0.9413754736    0.5161204731   -0.0161204731         -1.1896
O62        O    0.9838795269    0.5161204731   -0.0586245264         -1.1887
O63        O    1.0161204731    0.4838795269   -0.0586245264         -1.1866
C64        C    1.0000000000    0.4299072438    0.0000000000          0.3313
C65        C    1.0000000000    0.5000000000    0.0700927562          0.3362
C66        C    1.0700927562    0.5000000000    0.0000000000          0.3258
C67        C    1.0000000000    0.5700927562    0.0000000000          0.3295
C68        C    0.9299072438    0.5000000000    0.0000000000          0.3409
C69        C    1.0000000000    0.5000000000   -0.0700927562          0.3314
Zn70      Zn    1.0219347991    0.4780652009    0.5219347991          1.4972
Zn71      Zn    0.9780652009    0.4780652009    0.4780652009          1.4936
Zn72      Zn    0.9780652009    0.5219347991    0.5219347991          1.4911
Zn73      Zn    1.0219347991    0.5219347991    0.4780652009          1.4948
O74        O    1.0000000000    0.5000000000    0.5000000000         -2.2813
O75        O    1.0161204731    0.4413754736    0.5161204731         -1.1876
O76        O    0.9413754736    0.4838795269    0.4838795269         -1.1858
O77        O    0.9838795269    0.5161204731    0.5586245264          -1.181
O78        O    0.9838795269    0.4413754736    0.4838795269         -1.1878
O79        O    1.0161204731    0.4838795269    0.5586245264         -1.1837
O80        O    0.9413754736    0.5161204731    0.5161204731         -1.1896
O81        O    1.0161204731    0.5586245264    0.4838795269         -1.1835
O82        O    0.9838795269    0.4838795269    0.4413754736         -1.1911
O83        O    0.9838795269    0.5586245264    0.5161204731          -1.185
O84        O    1.0161204731    0.5161204731    0.4413754736         -1.1896
O85        O    1.0586245264    0.5161204731    0.4838795269         -1.1887
O86        O    1.0586245264    0.4838795269    0.5161204731         -1.1866
C87        C    1.0000000000    0.4299072438    0.5000000000          0.3313
C88        C    0.9299072438    0.5000000000    0.5000000000          0.3362
C89        C    1.0000000000    0.5000000000    0.5700927562          0.3258
C90        C    1.0000000000    0.5700927562    0.5000000000          0.3295
C91        C    1.0000000000    0.5000000000    0.4299072438          0.3409
C92        C    1.0700927562    0.5000000000    0.5000000000          0.3314
Zn93      Zn    0.4780652009    0.9780652009   -0.0219347991          1.4972
Zn94      Zn    0.4780652009    1.0219347991    0.0219347991          1.4936
Zn95      Zn    0.5219347991    0.9780652009    0.0219347991          1.4911
Zn96      Zn    0.5219347991    1.0219347991   -0.0219347991          1.4948
O97        O    0.5000000000    1.0000000000    0.0000000000         -2.2813
O98        O    0.4413754736    0.9838795269   -0.0161204731         -1.1876
O99        O    0.4838795269    1.0161204731    0.0586245264         -1.1858
O100       O    0.5161204731    0.9413754736    0.0161204731          -1.181
O101       O    0.4413754736    1.0161204731    0.0161204731         -1.1878
O102       O    0.4838795269    0.9413754736   -0.0161204731         -1.1837
O103       O    0.5161204731    0.9838795269    0.0586245264         -1.1896
O104       O    0.5586245264    1.0161204731   -0.0161204731         -1.1835
O105       O    0.4838795269    1.0586245264    0.0161204731         -1.1911
O106       O    0.5586245264    0.9838795269    0.0161204731          -1.185
O107       O    0.5161204731    1.0586245264   -0.0161204731         -1.1896
O108       O    0.5161204731    1.0161204731   -0.0586245264         -1.1887
O109       O    0.4838795269    0.9838795269   -0.0586245264         -1.1866
C110       C    0.4299072438    1.0000000000    0.0000000000          0.3313
C111       C    0.5000000000    1.0000000000    0.0700927562          0.3362
C112       C    0.5000000000    0.9299072438    0.0000000000          0.3258
C113       C    0.5700927562    1.0000000000    0.0000000000          0.3295
C114       C    0.5000000000    1.0700927562    0.0000000000          0.3409
C115       C    0.5000000000    1.0000000000   -0.0700927562          0.3314
Zn116     Zn    0.4780652009    1.0219347991    0.5219347991          1.4972
Zn117     Zn    0.4780652009    0.9780652009    0.4780652009          1.4936
Zn118     Zn    0.5219347991    1.0219347991    0.4780652009          1.4911
Zn119     Zn    0.5219347991    0.9780652009    0.5219347991          1.4948
O120       O    0.5000000000    1.0000000000    0.5000000000         -2.2813
O121       O    0.4413754736    1.0161204731    0.5161204731         -1.1876
O122       O    0.4838795269    0.9838795269    0.4413754736         -1.1858
O123       O    0.5161204731    1.0586245264    0.4838795269          -1.181
O124       O    0.4413754736    0.9838795269    0.4838795269         -1.1878
O125       O    0.4838795269    1.0586245264    0.5161204731         -1.1837
O126       O    0.5161204731    1.0161204731    0.4413754736         -1.1896
O127       O    0.5586245264    0.9838795269    0.5161204731         -1.1835
O128       O    0.4838795269    0.9413754736    0.4838795269         -1.1911
O129       O    0.5586245264    1.0161204731    0.4838795269          -1.185
O130       O    0.5161204731    0.9413754736    0.5161204731         -1.1896
O131       O    0.5161204731    0.9838795269    0.5586245264         -1.1887
O132       O    0.4838795269    1.0161204731    0.5586245264         -1.1866
C133       C    0.4299072438    1.0000000000    0.5000000000          0.3313
C134       C    0.5000000000    1.0000000000    0.4299072438          0.3362
C135       C    0.5000000000    1.0700927562    0.5000000000          0.3258
C136       C    0.5700927562    1.0000000000    0.5000000000          0.3295
C137       C    0.5000000000    0.9299072438    0.5000000000          0.3409
C138       C    0.5000000000    1.0000000000    0.5700927562          0.3314
Zn139     Zn    0.4780652009    0.5219347991   -0.0219347991          1.4972
Zn140     Zn    0.4780652009    0.4780652009    0.0219347991          1.4936
Zn141     Zn    0.5219347991    0.4780652009   -0.0219347991          1.4911
Zn142     Zn    0.5219347991    0.5219347991    0.0219347991          1.4948
O143       O    0.5000000000    0.5000000000    0.0000000000         -2.2813
O144       O    0.4413754736    0.5161204731   -0.0161204731         -1.1876
O145       O    0.4838795269    0.4413754736    0.0161204731         -1.1858
O146       O    0.5161204731    0.4838795269   -0.0586245264          -1.181
O147       O    0.4413754736    0.4838795269    0.0161204731         -1.1878
O148       O    0.4838795269    0.5161204731   -0.0586245264         -1.1837
O149       O    0.5161204731    0.4413754736   -0.0161204731         -1.1896
O150       O    0.5586245264    0.5161204731    0.0161204731         -1.1835
O151       O    0.4838795269    0.4838795269    0.0586245264         -1.1911
O152       O    0.5586245264    0.4838795269   -0.0161204731          -1.185
O153       O    0.5161204731    0.5161204731    0.0586245264         -1.1896
O154       O    0.5161204731    0.5586245264    0.0161204731         -1.1887
O155       O    0.4838795269    0.5586245264   -0.0161204731         -1.1866
C156       C    0.4299072438    0.5000000000    0.0000000000          0.3313
C157       C    0.5000000000    0.4299072438    0.0000000000          0.3362
C158       C    0.5000000000    0.5000000000   -0.0700927562          0.3258
C159       C    0.5700927562    0.5000000000    0.0000000000          0.3295
C160       C    0.5000000000    0.5000000000    0.0700927562          0.3409
C161       C    0.5000000000    0.5700927562    0.0000000000          0.3314
Zn162     Zn    0.4780652009    0.5219347991    0.4780652009          1.4972
Zn163     Zn    0.4780652009    0.4780652009    0.5219347991          1.4936
Zn164     Zn    0.5219347991    0.4780652009    0.4780652009          1.4911
Zn165     Zn    0.5219347991    0.5219347991    0.5219347991          1.4948
O166       O    0.5000000000    0.5000000000    0.5000000000         -2.2813
O167       O    0.4413754736    0.5161204731    0.4838795269         -1.1876
O168       O    0.4838795269    0.4413754736    0.5161204731         -1.1858
O169       O    0.5161204731    0.4838795269    0.4413754736          -1.181
O170       O    0.4413754736    0.4838795269    0.5161204731         -1.1878
O171       O    0.4838795269    0.5161204731    0.4413754736         -1.1837
O172       O    0.5161204731    0.4413754736    0.4838795269         -1.1896
O173       O    0.5586245264    0.5161204731    0.5161204731         -1.1835
O174       O    0.4838795269    0.4838795269    0.5586245264         -1.1911
O175       O    0.5586245264    0.4838795269    0.4838795269          -1.185
O176       O    0.5161204731    0.5161204731    0.5586245264         -1.1896
O177       O    0.5161204731    0.5586245264    0.5161204731         -1.1887
O178       O    0.4838795269    0.5586245264    0.4838795269         -1.1866
C179       C    0.4299072438    0.5000000000    0.5000000000          0.3313
C180       C    0.5000000000    0.4299072438    0.5000000000          0.3362
C181       C    0.5000000000    0.5000000000    0.4299072438          0.3258
C182       C    0.5700927562    0.5000000000    0.5000000000          0.3295
C183       C    0.5000000000    0.5000000000    0.5700927562          0.3409
C184       C    0.5000000000    0.5700927562    0.5000000000          0.3314
C1335      C    0.5000000000    0.5000000000   -0.1002208249          0.5499
C1336      C    0.5056318382    0.4766095396   -0.1099756790          0.5541
C1337      C    0.5019324231    0.4714554925   -0.1348687240         -0.4401
C1338      C    0.4922074978    0.4887912113   -0.1519581337         -0.4379
C1339      C    0.4837181262    0.5121594420   -0.1421183804           -0.44
C1340      C    0.4891443372    0.5180911514   -0.1164297813          0.5527
C1341      C    0.4934173781    0.4796592422   -0.1810700586         -0.4343
H1342      H    0.5075873676    0.4518134891   -0.1405381964         -0.4374
H1343      H    0.5134776398    0.4609747527   -0.0978752804           0.553
C1344      C    0.4836592997    0.5423266458   -0.1075830916          0.5481
C1345      C    0.4696628039    0.5301405387   -0.1559213263         -0.4349
C1346      C    0.4637430083    0.5534675958   -0.1459241629         -0.4389
C1347      C    0.4713814715    0.5598570273   -0.1220874849           0.552
Br1348    Br    0.4520052375    0.5249857254   -0.1881484167         -0.4182
H1349      H    0.4523716968    0.5675534116   -0.1571593304         -0.4346
H1350      H    0.4668533763    0.5790754105   -0.1141468997          0.5485
H1351      H    0.4890550543    0.5491160177   -0.0882847938          0.5408
O1352      O    0.5009340541    0.4996288125   -0.2001469468          0.5541
C1353      C    0.5217497822    0.4611459936   -0.2148186528          0.5522
C1354      C    0.5158486212    0.4599265892   -0.1859429465          0.5557
C1355      C    0.4943934633    0.4862525874   -0.2482847244         -0.4341
H1356      H    0.5334677696    0.4657206982   -0.1752647889          0.5399
H1357      H    0.5103151010    0.4455862653   -0.2239238196         -0.4334
H1358      H    0.5425038373    0.4578763171   -0.2187666376          0.5378
H1359      H    0.5104714846    0.4399615001   -0.1804613749         -0.4336
H1360      H    0.5298174736    0.5006134938   -0.2283416670          0.5332
C1361      C    0.5127931331    0.4885067371   -0.2237250944            0.55
H1362      H    0.4747660274    0.4710968627   -0.1871542494          -0.417
O1363      O    0.4902761808    0.5110783492   -0.2621346404         -0.4389
C1364      C    0.5266770937    0.4899925070   -0.2816826616          0.5418
C1365      C    0.5077105645    0.4700571878   -0.2700322212         -0.4376
C1366      C    0.4983714364    0.5174653624   -0.3109470988          0.5551
H1367      H    0.4930089448    0.4641151218   -0.2843037034         -0.4238
H1368      H    0.5432960378    0.4932617401   -0.2686876067          0.5275
H1369      H    0.5344867910    0.4836819522   -0.3005381828          0.5389
H1370      H    0.5179848513    0.4524519430   -0.2638902711         -0.4396
H1371      H    0.5214678223    0.5319223318   -0.2783384597          0.5312
C1372      C    0.5095499158    0.5147900524   -0.2830896997          0.5463
H1373      H    0.4755394629    0.4778456149   -0.2426173929         -0.4173
N1374      N    0.4925242643    0.4963374688   -0.3242512911         -0.4326
C1375      C    0.4918838656    0.4982037485   -0.3495615471         -0.4315
C1376      C    0.4950697534    0.5210869474   -0.3618437921         -0.4412
N1377      N    0.4977674515    0.5428396171   -0.3488204910          0.5487
C1378      C    0.4999414763    0.5406134120   -0.3234037498          0.5466
H1379      H    0.5054103948    0.5579570786   -0.3123715806           0.536
C1380      C    0.4958908621    0.4772479479   -0.3871163184         -0.4256
C1381      C    0.5000000000    0.5000000000   -0.3997791751         -0.4359
N1382      N    0.4914374332    0.4760601933   -0.3620118967          -0.423
N1383      N    0.4986624383    0.5223417944   -0.3870808116          0.5568
H1384      H    0.4970627559    0.4588130877   -0.3976459211         -0.4197
C1285      C    0.5000000000    0.5000000000    0.3997791751          0.5499
C1286      C    0.5236096532    0.4953723098    0.3900243210          0.5541
C1287      C    0.5267532521    0.4898616239    0.3651312760         -0.4401
C1288      C    0.5069419110    0.4882454304    0.3480418663         -0.4379
C1289      C    0.4821616790    0.4902662572    0.3578816196           -0.44
C1290      C    0.4790307447    0.4976707283    0.3835702187          0.5527
C1291      C    0.5157473760    0.4855397965    0.3189299414         -0.4343
H1292      H    0.5469650529    0.4868169887    0.3594618036         -0.4374
H1293      H    0.5410917213    0.4959891223    0.4021247196           0.553
C1294      C    0.4547141000    0.5027840067    0.3924169084          0.5481
C1295      C    0.4599591109    0.4849825190    0.3440786737         -0.4349
C1296      C    0.4362870964    0.4893220243    0.3540758371         -0.4389
C1297      C    0.4336619623    0.4989282528    0.3779125151           0.552
Br1298    Br    0.4572867897    0.4667830560    0.3118515833         -0.4182
H1299      H    0.4187439539    0.4848549130    0.3428406696         -0.4346
H1300      H    0.4143048261    0.5028207039    0.3858531003          0.5485
H1301      H    0.4507908281    0.5105181955    0.4117152062          0.5408
O1302      O    0.5007266601    0.5006944079    0.2998530532          0.5541
C1303      C    0.5443832101    0.5035801541    0.2851813472          0.5522
C1304      C    0.5430325706    0.4977076401    0.3140570535          0.5557
C1305      C    0.5101605425    0.4891746601    0.2517152756         -0.4341
H1306      H    0.5451077397    0.5161385859    0.3247352111          0.5399
H1307      H    0.5537625179    0.4867015978    0.2760761804         -0.4334
H1308      H    0.5560040566    0.5210837970    0.2812333624          0.5378
H1309      H    0.5589407981    0.4844998137    0.3195386251         -0.4336
H1310      H    0.5118677981    0.5273608018    0.2716583330          0.5332
C1311      C    0.5157789184    0.5068399620    0.2762749056            0.55
H1312      H    0.5157585261    0.4650169531    0.3128457506          -0.417
O1313      O    0.4858772921    0.4957772518    0.2378653596         -0.4389
C1314      C    0.5202140005    0.5200801252    0.2183173384          0.5418
C1315      C    0.5304322180    0.4945314616    0.2299677788         -0.4376
C1316      C    0.4834447101    0.5057977130    0.1890529012          0.5551
H1317      H    0.5297073347    0.4786909971    0.2156962966         -0.4238
H1318      H    0.5241675685    0.5365496877    0.2313123933          0.5275
H1319      H    0.5292049636    0.5245496952    0.1994618172          0.5389
H1320      H    0.5507174969    0.4965347279    0.2361097289         -0.4396
H1321      H    0.4799274948    0.5328176354    0.2216615403          0.5312
C1322      C    0.4905349388    0.5148444993    0.2169103003          0.5463
H1323      H    0.5099459741    0.4685323619    0.2573826071         -0.4173
N1324      N    0.5002140960    0.4916780458    0.1757487089         -0.4326
C1325      C    0.4982507153    0.4918736134    0.1504384529         -0.4315
C1326      C    0.4787766883    0.5043055460    0.1381562079         -0.4412
N1327      N    0.4601269153    0.5158225846    0.1511795090          0.5487
C1328      C    0.4630565711    0.5168711504    0.1765962502          0.5466
H1329      H    0.4495695573    0.5290700152    0.1876284194           0.536
C1330      C    0.5189700746    0.4867834513    0.1128836816         -0.4256
C1331      C    0.5000000000    0.5000000000    0.1002208249         -0.4359
N1332      N    0.5181939607    0.4822401664    0.1379881033          -0.423
N1333      N    0.4791331251    0.5080943425    0.1129191884          0.5568
H1334      H    0.5362163700    0.4801666016    0.1023540789         -0.4197
C1235      C    0.5000000000    0.8997791751    0.5000000000          0.5499
C1236      C    0.5012369302    0.8900243210    0.4759729061          0.5541
C1237      C    0.5062467939    0.8651312760    0.4720804597         -0.4401
C1238      C    0.5106527987    0.8480418663    0.4914631437         -0.4379
C1239      C    0.5121622519    0.8578816196    0.5162797750           -0.44
C1240      C    0.5052759023    0.8835702187    0.5204279228          0.5527
C1241      C    0.5120839363    0.8189299414    0.4823632253         -0.4343
H1242      H    0.5063979059    0.8594618036    0.4516411872         -0.4374
H1243      H    0.4981501523    0.9021247196    0.4587544576           0.553
C1244      C    0.5036584188    0.8924169084    0.5452236598          0.5481
C1245      C    0.5205375219    0.8440786737    0.5375101017         -0.4349
C1246      C    0.5195947041    0.8540758371    0.5615581093         -0.4389
C1247      C    0.5104571529    0.8779125151    0.5655174163           0.552
Br1248    Br    0.5389320099    0.8118515833    0.5375776837         -0.4182
H1249      H    0.5265016130    0.8428406696    0.5782916547         -0.4346
H1250      H    0.5093457167    0.8858531003    0.5852307268          0.5485
H1251      H    0.4965579034    0.9117152062    0.5502028585          0.5408
O1252      O    0.4992096680    0.7998530532    0.4993790229          0.5541
C1253      C    0.4901694419    0.7851813472    0.4565713577          0.5522
C1254      C    0.4961740559    0.8140570535    0.4570765892          0.5557
C1255      C    0.5092770460    0.7517152756    0.4884085797         -0.4341
H1256      H    0.4776350004    0.8247352111    0.4576329264          0.5399
H1257      H    0.5055493312    0.7760761804    0.4448959098         -0.4334
H1258      H    0.4711962774    0.7812333624    0.4475469122          0.5378
H1259      H    0.5069954582    0.8195386251    0.4394579731         -0.4336
H1260      H    0.4712340776    0.7716583330    0.4921272742          0.5332
C1261      C    0.4909940506    0.7762749056    0.4853489857            0.55
H1262      H    0.5323982898    0.8128457506    0.4794453038          -0.417
O1263      O    0.5061805344    0.7378653596    0.5133822074         -0.4389
C1264      C    0.4772591830    0.7183173384    0.4828339729          0.5418
C1265      C    0.5011029436    0.7299677788    0.4691000272         -0.4376
C1266      C    0.4966056533    0.6890529012    0.5172095762          0.5551
H1267      H    0.5168863786    0.7156962966    0.4675739371         -0.4238
H1268      H    0.4603956772    0.7313123933    0.4812530361          0.5275
H1269      H    0.4715611826    0.6994618172    0.4745667324          0.5389
H1270      H    0.4962466393    0.7361097289    0.4493030091         -0.4396
H1271      H    0.4703563280    0.7216615403    0.5245184700          0.5312
C1272      C    0.4866458067    0.7169103003    0.5114722301          0.5463
H1273      H    0.5297416211    0.7573826071    0.4856971812         -0.4173
N1274      N    0.5082077278    0.6757487089    0.4986093295         -0.4326
C1275      C    0.5082922278    0.6504384529    0.5005806159         -0.4315
C1276      C    0.4987439614    0.6381562079    0.5216191825         -0.4412
N1277      N    0.4899846167    0.6511795090    0.5417122184          0.5487
C1278      C    0.4885316620    0.6765962502    0.5389606196          0.5466
H1279      H    0.4783661049    0.6876284194    0.5540395218           0.536
C1280      C    0.5103963525    0.6128836816    0.4793491708         -0.4256
C1281      C    0.5000000000    0.6002208249    0.5000000000         -0.4359
N1282      N    0.5150037620    0.6379881033    0.4794739428          -0.423
N1283      N    0.4949428773    0.6129191884    0.5218029896          0.5568
H1284      H    0.5145037023    0.6023540789    0.4613395323         -0.4197
C1185      C    0.5000000000    1.1002208249    0.5000000000          0.5499
C1186      C    0.4834103660    1.1099756790    0.5174245598          0.5541
C1187      C    0.4840309408    1.1348687240    0.5237384143         -0.4401
C1188      C    0.5011307749    1.1519581337    0.5136044619         -0.4379
C1189      C    0.5201825700    1.1421183804    0.4976303346           -0.44
C1190      C    0.5184568842    1.1164297813    0.4897785227          0.5527
C1191      C    0.4955098465    1.1810700586    0.5209025324         -0.4343
H1192      H    0.4692987173    1.1405381964    0.5379069811         -0.4374
H1193      H    0.4687888885    1.0978752804    0.5270274531           0.553
C1194      C    0.5353426913    1.1075830916    0.4715490316          0.5481
C1195      C    0.5413537502    1.1559213263    0.4891066588         -0.4349
C1196      C    0.5581608660    1.1459241629    0.4718811999         -0.4389
C1197      C    0.5547496484    1.1220874849    0.4625252099           0.552
Br1198    Br    0.5540552077    1.1881484167    0.5024120987         -0.4182
H1199      H    0.5750579950    1.1571593304    0.4653847421         -0.4346
H1200      H    0.5682943749    1.1141468997    0.4481589202          0.5485
H1201      H    0.5340729258    1.0882847938    0.4629701369          0.5408
O1202      O    0.4990056348    1.2001469468    0.4998534560          0.5541
C1203      C    0.4617148267    1.2148186528    0.5227361463          0.5522
C1204      C    0.4662117502    1.1859429465    0.5267471721          0.5557
C1205      C    0.4979672791    1.2482847244    0.5147068914         -0.4341
H1206      H    0.4538637352    1.1752647889    0.5129076412          0.5399
H1207      H    0.4638188721    1.2239238196    0.5419306787         -0.4334
H1208      H    0.4421138555    1.2187666376    0.5151715236          0.5378
H1209      H    0.4608663602    1.1804613749    0.5467207844         -0.4336
H1210      H    0.4744992051    1.2283416670    0.4845349567          0.5332
C1211      C    0.4831707116    1.2237250944    0.5035403954            0.55
H1212      H    0.5073647837    1.1871542494    0.5376550751          -0.417
O1213      O    0.5139648812    1.2621346404    0.4952814650         -0.4389
C1214      C    0.4718978058    1.2816826616    0.4953006460          0.5418
C1215      C    0.4783294190    1.2700322212    0.5220547211         -0.4376
C1216      C    0.5101570827    1.3109470988    0.4856987842          0.5551
H1217      H    0.4880781071    1.2843037034    0.5345610736         -0.4238
H1218      H    0.4591509217    1.2686876067    0.4841474342          0.5275
H1219      H    0.4619776075    1.3005381828    0.4968511745          0.5389
H1220      H    0.4606191017    1.2638902711    0.5321468108         -0.4396
H1221      H    0.4974071102    1.2783384597    0.4616179784          0.5312
C1222      C    0.4991417937    1.2830896997    0.4824156313          0.5463
H1223      H    0.5100754522    1.2426173929    0.5314264207         -0.4173
N1224      N    0.5046361358    1.3242512911    0.5069142610         -0.4326
C1225      C    0.5061251469    1.3495615471    0.5056196737         -0.4315
C1226      C    0.5148286706    1.3618437921    0.4842178198         -0.4412
N1227      N    0.5233885153    1.3488204910    0.4640389875          0.5487
C1228      C    0.5203918291    1.3234037498    0.4648769882          0.5466
H1229      H    0.5243448426    1.3123715806    0.4471263395           0.536
C1230      C    0.4921612662    1.3871163184    0.5217507504         -0.4256
C1231      C    0.5000000000    1.3997791751    0.5000000000         -0.4359
N1232      N    0.4954209788    1.3620118967    0.5250092875          -0.423
N1233      N    0.5123475650    1.3870808116    0.4813323144          0.5568
H1234      H    0.4819138754    1.3976459211    0.5371198228         -0.4197
C1135      C    0.5000000000    0.6002208249    0.0000000000          0.5499
C1136      C    0.5108733261    0.6099756790   -0.0214616407          0.5541
C1137      C    0.5084619836    0.6348687240   -0.0273298006         -0.4401
C1138      C    0.4950019277    0.6519581337   -0.0127035156         -0.4379
C1139      C    0.4813531908    0.6421183804    0.0080776206           -0.44
C1140      C    0.4852654913    0.6164297813    0.0151006432          0.5527
C1141      C    0.4982848050    0.6810700586   -0.0213104539         -0.4343
H1142      H    0.5184934955    0.6405381964   -0.0451386597         -0.4374
H1143      H    0.5221127006    0.5978752804   -0.0348661035           0.553
C1144      C    0.4743401672    0.6075830916    0.0374183967          0.5481
C1145      C    0.4635306142    0.6559213263    0.0223334152         -0.4349
C1146      C    0.4523917089    0.6459241629    0.0436669654         -0.4389
C1147      C    0.4583511128    0.6220874849    0.0516454653           0.552
Br1148    Br    0.4475374034    0.6881484167    0.0132461185         -0.4182
H1149      H    0.4380789733    0.6571593304    0.0547513026         -0.4346
H1150      H    0.4495137629    0.6141468997    0.0693019413          0.5485
H1151      H    0.4780250769    0.5882847938    0.0452689495          0.5408
O1152      O    0.5009944721    0.7001469468   -0.0001458169          0.5541
C1153      C    0.5301224641    0.7148186528   -0.0327921332          0.5522
C1154      C    0.5246614748    0.6859429465   -0.0353393365          0.5557
C1155      C    0.4977143332    0.7482847244   -0.0146697081         -0.4341
H1156      H    0.5404698976    0.6752647889   -0.0256388283          0.5399
H1157      H    0.5225835672    0.7239238196   -0.0505691440         -0.4334
H1158      H    0.5510711988    0.7187666376   -0.0311883553          0.5378
H1159      H    0.5240326634    0.6804613749   -0.0560062903         -0.4336
H1160      H    0.5288725775    0.7283416670    0.0074721065          0.5332
C1161      C    0.5150984697    0.7237250944   -0.0082338058            0.55
H1162      H    0.4821102850    0.6871542494   -0.0339426401          -0.417
O1163      O    0.4879838091    0.7621346404    0.0085377770         -0.4389
C1164      C    0.5282657427    0.7816826616   -0.0035867857          0.5418
C1165      C    0.5144068445    0.7700322212   -0.0273581365         -0.4376
C1166      C    0.4943882545    0.8109470988    0.0166192483          0.5551
H1167      H    0.5014714519    0.7843037034   -0.0365299078         -0.4238
H1168      H    0.5436830836    0.7686876067    0.0034262586          0.5275
H1169      H    0.5373200574    0.8005381828   -0.0079265853          0.5389
H1170      H    0.5284636050    0.7638902711   -0.0421200165         -0.4396
H1171      H    0.5135288961    0.7783384597    0.0360121040          0.5312
C1172      C    0.5058823845    0.7830896997    0.0165934956          0.5463
H1173      H    0.4813067911    0.7426173929   -0.0271974005         -0.4173
N1174      N    0.4935701857    0.8242512911   -0.0052875559         -0.4326
C1175      C    0.4925167266    0.8495615471   -0.0036192231         -0.4315
C1176      C    0.4903404919    0.8618437921    0.0193819655         -0.4412
N1177      N    0.4879498928    0.8488204910    0.0411705232          0.5487
C1178      C    0.4905786436    0.8234037498    0.0395055781          0.5466
H1179      H    0.4919011965    0.8123715806    0.0576429069           0.536
C1180      C    0.5012476228    0.8871163184   -0.0230864533         -0.4256
C1181      C    0.5000000000    0.8997791751    0.0000000000         -0.4359
N1182      N    0.4971880584    0.8620118967   -0.0252690499          -0.423
N1183      N    0.4935470354    0.8870808116    0.0214313811          0.5568
H1184      H    0.5066385448    0.8976459211   -0.0407543724         -0.4197
C1085      C    0.5000000000    1.3997791751    0.0000000000          0.5499
C1086      C    0.4906313045    1.3900243210    0.0221598462          0.5541
C1087      C    0.4845932776    1.3651312760    0.0241071788         -0.4401
C1088      C    0.4870721191    1.3480418663    0.0043851946         -0.4379
C1089      C    0.4941292322    1.3578816196   -0.0194547046           -0.44
C1090      C    0.5020182402    1.3835702187   -0.0210014733          0.5527
C1091      C    0.4826190785    1.3189299414    0.0124491327         -0.4343
H1092      H    0.4774704824    1.3594618036    0.0432657926         -0.4374
H1093      H    0.4876517303    1.4021247196    0.0393971691           0.553
C1094      C    0.5120071258    1.3924169084   -0.0437537697          0.5481
C1095      C    0.4935085257    1.3440786737   -0.0422688809         -0.4349
C1096      C    0.5026079371    1.3540758371   -0.0645488335         -0.4389
C1097      C    0.5125482820    1.3779125151   -0.0651492479           0.552
Br1098    Br    0.4762432114    1.3118515833   -0.0486147992         -0.4182
H1099      H    0.5018314790    1.3428406696   -0.0826351280         -0.4346
H1100      H    0.5203257125    1.3858531003   -0.0832975667          0.5485
H1101      H    0.5203812562    1.4117152062   -0.0460084713          0.5408
O1102      O    0.5005307213    1.2998530532    0.0008535644          0.5541
C1103      C    0.4944069373    1.2851813472    0.0441747042          0.5522
C1104      C    0.4889359462    1.3140570535    0.0416490547          0.5557
C1105      C    0.4873218985    1.2517152756    0.0077259530         -0.4341
H1106      H    0.5065502265    1.3247352111    0.0474579463          0.5399
H1107      H    0.4759642684    1.2760761804    0.0498952847         -0.4334
H1108      H    0.5091570301    1.2812333624    0.0591365340          0.5378
H1109      H    0.4727478423    1.3195386251    0.0545123230         -0.4336
H1110      H    0.5243473505    1.2716583330    0.0172239551          0.5332
C1111      C    0.5034605414    1.2762749056    0.0168458897            0.55
H1112      H    0.4625296833    1.3128457506    0.0082534892          -0.417
O1113      O    0.4987616320    1.2378653596   -0.0146883942         -0.4389
C1114      C    0.5155105377    1.2183173384    0.0239006373          0.5418
C1115      C    0.4884098912    1.2299677788    0.0286652086         -0.4376
C1116      C    0.5090679476    1.1890529012   -0.0150154397          0.5551
H1117      H    0.4730543247    1.2156962966    0.0247089036         -0.4238
H1118      H    0.5308200635    1.2313123933    0.0311460226          0.5275
H1119      H    0.5180423383    1.1994618172    0.0336168331          0.5389
H1120      H    0.4862127614    1.2361097289    0.0489304062         -0.4396
H1121      H    0.5362351146    1.2216615403   -0.0129197188          0.5312
C1122      C    0.5164693751    1.2169103003   -0.0062214328          0.5463
H1123      H    0.4671618501    1.2573826071    0.0032848988         -0.4173
N1124      N    0.4918108513    1.1757487089   -0.0014961964         -0.4326
C1125      C    0.4924046999    1.1504384529   -0.0033778059         -0.4315
C1126      C    0.5085642638    1.1381562079   -0.0198902004         -0.4412
N1127      N    0.5236594114    1.1511795090   -0.0357833665          0.5487
C1128      C    0.5240852243    1.1765962502   -0.0327009881          0.5466
H1129      H    0.5387895137    1.1876284194   -0.0434012553           0.536
C1130      C    0.4831757736    1.1128836816    0.0158583195         -0.4256
C1131      C    0.5000000000    1.1002208249    0.0000000000         -0.4359
N1132      N    0.4788880298    1.1379881033    0.0141674489          -0.423
N1133      N    0.5121995592    1.1129191884   -0.0187647436          0.5568
H1134      H    0.4731644460    1.1023540789    0.0313821954         -0.4197
C1035      C    0.5000000000    1.0000000000   -0.1002208249          0.5499
C1036      C    0.4762309568    1.0037234157   -0.1099756790          0.5541
C1037      C    0.4728793689    1.0091101338   -0.1348687240         -0.4401
C1038      C    0.4926146104    1.0114811174   -0.1519581337         -0.4379
C1039      C    0.5174539064    1.0104073338   -0.1421183804           -0.44
C1040      C    0.5208651024    1.0031277265   -0.1164297813          0.5527
C1041      C    0.4837123159    1.0138487792   -0.1810700586         -0.4343
H1042      H    0.4525661102    1.0113813036   -0.1405381964         -0.4374
H1043      H    0.4587851572    1.0024399665   -0.0978752804           0.553
C1044      C    0.5453591516    0.9989460538   -0.1075830916          0.5481
C1045      C    0.5394386861    1.0165344361   -0.1559213263         -0.4349
C1046      C    0.5632590485    1.0131013750   -0.1459241629         -0.4389
C1047      C    0.5662488281    1.0036023134   -0.1220874849           0.552
Br1048    Br    0.5414146005    1.0348226158   -0.1881484167         -0.4182
H1049      H    0.5806189572    1.0182346495   -0.1571593304         -0.4346
H1050      H    0.5857403960    1.0004513325   -0.1141468997          0.5485
H1051      H    0.5495746896    0.9913672032   -0.0882847938          0.5408
O1052      O    0.4993003665    0.9992783697   -0.2001469468          0.5541
C1053      C    0.4557857265    0.9947288655   -0.2148186528          0.5522
C1054      C    0.4569112972    1.0006486407   -0.1859429465          0.5557
C1055      C    0.4894337808    1.0104297469   -0.2482847244         -0.4341
H1056      H    0.4555409330    0.9821519331   -0.1752647889          0.5399
H1057      H    0.4457691926    1.0112372308   -0.2239238196         -0.4334
H1058      H    0.4448412526    0.9767945386   -0.2187666376          0.5378
H1059      H    0.4405106673    1.0132398170   -0.1804613749         -0.4336
H1060      H    0.4891848868    0.9722062699   -0.2283416670          0.5332
C1061      C    0.4844935746    0.9925629228   -0.2237250944            0.55
H1062      H    0.4829180571    1.0343562505   -0.1871542494          -0.417
O1063      O    0.5139512895    1.0047585714   -0.2621346404         -0.4389
C1064      C    0.4805669446    0.9791631671   -0.2816826616          0.5418
C1065      C    0.4693812754    1.0043033140   -0.2700322212         -0.4376
C1066      C    0.5167644637    0.9948382311   -0.3109470988          0.5551
H1067      H    0.4695011857    1.0201599023   -0.2843037034         -0.4238
H1068      H    0.4772447065    0.9625547379   -0.2686876067          0.5275
H1069      H    0.4717530808    0.9743537724   -0.3005381828          0.5389
H1070      H    0.4491872114    1.0015274550   -0.2638902711         -0.4396
H1071      H    0.5213101517    0.9679721981   -0.2783384597          0.5312
C1072      C    0.5100246087    0.9855274825   -0.2830896997          0.5463
H1073      H    0.4888605179    1.0310651990   -0.2426173929         -0.4173
N1074      N    0.4994685083    1.0083077239   -0.3242512911         -0.4326
C1075      C    0.5014379216    1.0081872180   -0.3495615471         -0.4315
C1076      C    0.5213721472    0.9965074351   -0.3618437921         -0.4412
N1077      N    0.5404478083    0.9857104279   -0.3488204910          0.5487
C1078      C    0.5375602977    0.9845508351   -0.3234037498          0.5466
H1079      H    0.5515029768    0.9728754962   -0.3123715806           0.536
C1080      C    0.4805394201    1.0124830574   -0.3871163184         -0.4256
C1081      C    0.5000000000    1.0000000000   -0.3997791751         -0.4359
N1082      N    0.4811416048    1.0170526486   -0.3620118967          -0.423
N1083      N    0.5211605440    0.9927077970   -0.3870808116          0.5568
H1084      H    0.4630531974    1.0184369988   -0.3976459211         -0.4197
C985       C    0.5000000000    1.0000000000    0.1002208249          0.5499
C986       C    0.5236096532    1.0046276902    0.1099756790          0.5541
C987       C    0.5267532521    1.0101383761    0.1348687240         -0.4401
C988       C    0.5069419110    1.0117545696    0.1519581337         -0.4379
C989       C    0.4821616790    1.0097337428    0.1421183804           -0.44
C990       C    0.4790307447    1.0023292717    0.1164297813          0.5527
C991       C    0.5157473760    1.0144602035    0.1810700586         -0.4343
H992       H    0.5469650529    1.0131830113    0.1405381964         -0.4374
H993       H    0.5410917213    1.0040108777    0.0978752804           0.553
C994       C    0.4547141000    0.9972159933    0.1075830916          0.5481
C995       C    0.4599591109    1.0150174810    0.1559213263         -0.4349
C996       C    0.4362870964    1.0106779757    0.1459241629         -0.4389
C997       C    0.4336619623    1.0010717472    0.1220874849           0.552
Br998     Br    0.4572867897    1.0332169440    0.1881484167         -0.4182
H999       H    0.4187439539    1.0151450870    0.1571593304         -0.4346
H1000      H    0.4143048261    0.9971792961    0.1141468997          0.5485
H1001      H    0.4507908281    0.9894818045    0.0882847938          0.5408
O1002      O    0.5007266601    0.9993055921    0.2001469468          0.5541
C1003      C    0.5443832101    0.9964198459    0.2148186528          0.5522
C1004      C    0.5430325706    1.0022923599    0.1859429465          0.5557
C1005      C    0.5101605425    1.0108253399    0.2482847244         -0.4341
H1006      H    0.5451077397    0.9838614141    0.1752647889          0.5399
H1007      H    0.5537625179    1.0132984022    0.2239238196         -0.4334
H1008      H    0.5560040566    0.9789162030    0.2187666376          0.5378
H1009      H    0.5589407981    1.0155001863    0.1804613749         -0.4336
H1010      H    0.5118677981    0.9726391982    0.2283416670          0.5332
C1011      C    0.5157789184    0.9931600380    0.2237250944            0.55
H1012      H    0.5157585261    1.0349830469    0.1871542494          -0.417
O1013      O    0.4858772921    1.0042227482    0.2621346404         -0.4389
C1014      C    0.5202140005    0.9799198748    0.2816826616          0.5418
C1015      C    0.5304322180    1.0054685384    0.2700322212         -0.4376
C1016      C    0.4834447101    0.9942022870    0.3109470988          0.5551
H1017      H    0.5297073347    1.0213090029    0.2843037034         -0.4238
H1018      H    0.5241675685    0.9634503123    0.2686876067          0.5275
H1019      H    0.5292049636    0.9754503048    0.3005381828          0.5389
H1020      H    0.5507174969    1.0034652721    0.2638902711         -0.4396
H1021      H    0.4799274948    0.9671823646    0.2783384597          0.5312
C1022      C    0.4905349388    0.9851555007    0.2830896997          0.5463
H1023      H    0.5099459741    1.0314676381    0.2426173929         -0.4173
N1024      N    0.5002140960    1.0083219542    0.3242512911         -0.4326
C1025      C    0.4982507153    1.0081263866    0.3495615471         -0.4315
C1026      C    0.4787766883    0.9956944540    0.3618437921         -0.4412
N1027      N    0.4601269153    0.9841774154    0.3488204910          0.5487
C1028      C    0.4630565711    0.9831288496    0.3234037498          0.5466
H1029      H    0.4495695573    0.9709299848    0.3123715806           0.536
C1030      C    0.5189700746    1.0132165487    0.3871163184         -0.4256
C1031      C    0.5000000000    1.0000000000    0.3997791751         -0.4359
N1032      N    0.5181939607    1.0177598336    0.3620118967          -0.423
N1033      N    0.4791331251    0.9919056575    0.3870808116          0.5568
H1034      H    0.5362163700    1.0198333984    0.3976459211         -0.4197
C935       C    0.8997791751    0.5000000000    0.5000000000          0.5499
C936       C    0.8900243210    0.4803692898    0.5139092219          0.5541
C937       C    0.8651312760    0.4797641466    0.5202245742         -0.4401
C938       C    0.8480418663    0.4984935721    0.5135680032         -0.4379
C939       C    0.8578816196    0.5202615775    0.5015556104           -0.44
C940       C    0.8835702187    0.5200779794    0.4935184945          0.5527
C941       C    0.8189299414    0.4915741505    0.5196489795         -0.4343
H942       H    0.8594618036    0.4625822996    0.5312957453         -0.4374
H943       H    0.9021247196    0.4641740878    0.5205212260           0.553
C944       C    0.8924169084    0.5401541212    0.4788763170          0.5481
C945       C    0.8440786737    0.5426767130    0.4972621712         -0.4349
C946       C    0.8540758371    0.5624825595    0.4835901554         -0.4389
C947       C    0.8779125151    0.5609341363    0.4737528112           0.552
Br948     Br    0.8118515833    0.5525825222    0.5127617420         -0.4182
H949       H    0.8428406696    0.5803135834    0.4804642119         -0.4346
H950       H    0.8858531003    0.5769886705    0.4622592551          0.5485
H951       H    0.9117152062    0.5405577504    0.4702133601          0.5408
O952       O    0.7998530532    0.4990523729    0.4996649774          0.5541
C953       C    0.7851813472    0.4580572569    0.5149496872          0.5522
C954       C    0.8140570535    0.4616989444    0.5197505997          0.5557
C955       C    0.7517152756    0.4951771234    0.5140415266         -0.4341
H956       H    0.8247352111    0.4522426856    0.5037948716          0.5399
H957       H    0.7760761804    0.4564309806    0.5341905891         -0.4334
H958       H    0.7812333624    0.4402767588    0.5037570346          0.5378
H959       H    0.8195386251    0.4526124486    0.5383235363         -0.4336
H960       H    0.7716583330    0.4779490162    0.4799198552          0.5332
C961       C    0.7762749056    0.4828039930    0.5002380964            0.55
H962       H    0.8128457506    0.4999863703    0.5383685357          -0.417
O963       O    0.7378653596    0.5146116119    0.4980549347         -0.4389
C964       C    0.7183173384    0.4733259564    0.4899843802          0.5418
C965       C    0.7299677788    0.4744928030    0.5174759180         -0.4376
C966       C    0.6890529012    0.5127176012    0.4879188692          0.5551
H967       H    0.7156962966    0.4816546133    0.5316235059         -0.4238
H968       H    0.7313123933    0.4629617011    0.4765881344          0.5275
H969       H    0.6994618172    0.4632927390    0.4895983451          0.5389
H970       H    0.7361097289    0.4551723380    0.5239740134         -0.4396
H971       H    0.7216615403    0.5048362543    0.4618357064          0.5312
C972       C    0.7169103003    0.5025392341    0.4825787821          0.5463
H973       H    0.7573826071    0.5038442012    0.5327773820         -0.4173
N974       N    0.6757487089    0.5032200179    0.5076767339         -0.4326
C975       C    0.6504384529    0.5049301847    0.5066926404         -0.4315
C976       C    0.6381562079    0.5175867873    0.4873638772         -0.4412
N977       N    0.6511795090    0.5298672089    0.4692076811          0.5487
C978       C    0.6765962502    0.5267653055    0.4694537878          0.5466
H979       H    0.6876284194    0.5340579415    0.4527945771           0.536
C980       C    0.6128836816    0.4881249557    0.5198374447         -0.4256
C981       C    0.6002208249    0.5000000000    0.5000000000         -0.4359
N982       N    0.6379881033    0.4906972242    0.5236620003          -0.423
N983       N    0.6129191884    0.5157068616    0.4840551154          0.5568
H984       H    0.6023540789    0.4751133861    0.5329491365         -0.4197
C885       C    1.1002208249    0.5000000000    0.5000000000          0.5499
C886       C    1.1099756790    0.4772169590    0.5077307361          0.5541
C887       C    1.1348687240    0.4717485344    0.5045141842         -0.4401
C888       C    1.1519581337    0.4881304546    0.4932565641         -0.4379
C889       C    1.1421183804    0.5106321049    0.4826820962           -0.44
C890       C    1.1164297813    0.5170316499    0.4875477683          0.5527
C891       C    1.1810700586    0.4791459145    0.4952899623         -0.4343
H892       H    1.1405381964    0.4527005877    0.5119278487         -0.4374
H893       H    1.0978752804    0.4623584704    0.5169626634           0.553
C894       C    1.1075830916    0.5406695586    0.4798865609          0.5481
C895       C    1.1559213263    0.5272638614    0.4670533857         -0.4349
C896       C    1.1459241629    0.5499576355    0.4590416320         -0.4389
C897       C    1.1220874849    0.5570137238    0.4660689054           0.552
Br898     Br    1.1881484167    0.5205283058    0.4499363169         -0.4182
H899       H    1.1571593304    0.5629536855    0.4464392665         -0.4346
H900       H    1.1141468997    0.5757420320    0.4598158764          0.5485
H901       H    1.0882847938    0.5479204659    0.4846440898          0.5408
O902       O    1.2001469468    0.4997150863    0.5009638783          0.5541
C903       C    1.2148186528    0.4632795039    0.5251851545          0.5522
C904       C    1.1859429465    0.4615297394    0.5194189623          0.5557
C905       C    1.2482847244    0.4858006243    0.4956638338         -0.4341
H906       H    1.1752647889    0.4688984688    0.5364397707          0.5399
H907       H    1.2239238196    0.4467465222    0.5152093040         -0.4334
H908       H    1.2187666376    0.4619062455    0.5461502624          0.5378
H909       H    1.1804613749    0.4411591422    0.5158753555         -0.4336
H910       H    1.2283416670    0.5033161855    0.5296388431          0.5332
C911       C    1.2237250944    0.4897148071    0.5137831112            0.55
H912       H    1.1871542494    0.4689266836    0.4774923629          -0.417
O913       O    1.2621346404    0.5101504570    0.4893111880         -0.4389
C914       C    1.2816826616    0.4924540866    0.5274750148          0.5418
C915       C    1.2700322212    0.4708802245    0.5103953586         -0.4376
C916       C    1.3109470988    0.5172455801    0.4967935893          0.5551
H917       H    1.2843037034    0.4636288442    0.4962934703         -0.4238
H918       H    1.2686876067    0.4972176083    0.5437288158          0.5275
H919       H    1.3005381828    0.4868781002    0.5358250357          0.5389
H920       H    1.2638902711    0.4542797312    0.5222245275         -0.4396
H921       H    1.2783384597    0.5337383714    0.5184830993          0.5312
C922       C    1.2830896997    0.5155954828    0.5081686877          0.5463
H923       H    1.2426173929    0.4757177740    0.4776503210         -0.4173
N924       N    1.3242512911    0.4956743294    0.4928873821         -0.4326
C925       C    1.3495615471    0.4974748115    0.4920803043         -0.4315
C926       C    1.3618437921    0.5205526807    0.4931769507         -0.4412
N927       N    1.3488204910    0.5424603913    0.4938899892          0.5487
C928       C    1.3234037498    0.5404406080    0.4962570228          0.5466
H929       H    1.3123715806    0.5582089208    0.5001298644           0.536
C930       C    1.3871163184    0.4769689740    0.4979720127         -0.4256
C931       C    1.3997791751    0.5000000000    0.5000000000         -0.4359
N932       N    1.3620118967    0.4753820758    0.4936447105          -0.423
N933       N    1.3870808116    0.5221283026    0.4966409716          0.5568
H934       H    1.3976459211    0.4587164626    0.5008115956         -0.4197
C835       C    0.6002208249    0.5000000000    0.0000000000          0.5499
C836       C    0.6099756790    0.4772860709    0.0079314983          0.5541
C837       C    0.6348687240    0.4717894729    0.0047633313         -0.4401
C838       C    0.6519581337    0.4880714051   -0.0066384230         -0.4379
C839       C    0.6421183804    0.5104788581   -0.0174110591           -0.44
C840       C    0.6164297813    0.5169210941   -0.0126020533          0.5527
C841       C    0.6810700586    0.4791051599   -0.0045258143         -0.4343
H842       H    0.6405381964    0.4528076944    0.0123448076         -0.4374
H843       H    0.5978752804    0.4625096339    0.0172941941           0.553
C844       C    0.6075830916    0.5404904712   -0.0204715700          0.5481
C845       C    0.6559213263    0.5269720416   -0.0331859384         -0.4349
C846       C    0.6459241629    0.5495942271   -0.0413976555         -0.4389
C847       C    0.6220874849    0.5567120573   -0.0344329267           0.552
Br848     Br    0.6881484167    0.5200856879   -0.0502428984         -0.4182
H849       H    0.6571593304    0.5624785536   -0.0541142221         -0.4346
H850       H    0.6141468997    0.5753844524   -0.0408509919          0.5485
H851       H    0.5882847938    0.5477830819   -0.0157782164          0.5408
O852       O    0.7001469468    0.4997236038    0.0009663552          0.5541
C853       C    0.7148186528    0.4635031961    0.0255082368          0.5522
C854       C    0.6859429465    0.4617026124    0.0197577111          0.5557
C855       C    0.7482847244    0.4857629100   -0.0042106860         -0.4341
H856       H    0.6752647889    0.4692212656    0.0367128266          0.5399
H857       H    0.7239238196    0.4468828200    0.0156786805         -0.4334
H858       H    0.7187666376    0.4623150110    0.0464846475          0.5378
H859       H    0.6804613749    0.4413015356    0.0163940154         -0.4336
H860       H    0.7283416670    0.5035776230    0.0296084231          0.5332
C861       C    0.7237250944    0.4898368454    0.0138733426            0.55
H862       H    0.6871542494    0.4687292609   -0.0222325346          -0.417
O863       O    0.7621346404    0.5100557316   -0.0107779749         -0.4389
C864       C    0.7816826616    0.4926968510    0.0275405385          0.5418
C865       C    0.7700322212    0.4709730989    0.0106519395         -0.4376
C866       C    0.8109470988    0.5172166115   -0.0033584803          0.5551
H867       H    0.7843037034    0.4635975500   -0.0033854053         -0.4238
H868       H    0.7686876067    0.4976036291    0.0437516679          0.5275
H869       H    0.8005381828    0.4871947718    0.0359394430          0.5389
H870       H    0.7638902711    0.4544776460    0.0226271493         -0.4396
H871       H    0.7783384597    0.5339001732    0.0181846341          0.5312
C872       C    0.7830896997    0.5156669652    0.0080307375          0.5463
H873       H    0.7426173929    0.4755214808   -0.0221345149         -0.4173
N874       N    0.8242512911    0.4956117281   -0.0070741663         -0.4326
C875       C    0.8495615471    0.4974050176   -0.0078971022         -0.4315
C876       C    0.8618437921    0.5204916660   -0.0070041637         -0.4412
N877       N    0.8488204910    0.5424048162   -0.0064844913          0.5487
C878       C    0.8234037498    0.5404060009   -0.0040997250          0.5466
H879       H    0.8123715806    0.5582078001   -0.0003838419           0.536
C880       C    0.8871163184    0.4769519736   -0.0018246566         -0.4256
C881       C    0.8997791751    0.5000000000    0.0000000000         -0.4359
N882       N    0.8620118967    0.4753269482   -0.0061377857          -0.423
N883       N    0.8870808116    0.5220977970   -0.0035541827          0.5568
H884       H    0.8976459211    0.4587252327    0.0011758965         -0.4197
C785       C    1.1002208249    0.5000000000    0.0000000000          0.5499
C786       C    1.1099756790    0.5104425534   -0.0216745085          0.5541
C787       C    1.1348687240    0.5165686917   -0.0233238424         -0.4401
C788       C    1.1519581337    0.5131271016   -0.0037468974         -0.4379
C789       C    1.1421183804    0.5049110909    0.0197188395           -0.44
C790       C    1.1164297813    0.4969558061    0.0208774533          0.5527
C791       C    1.1810700586    0.5179696655   -0.0115831110         -0.4343
H792       H    1.1405381964    0.5246210783   -0.0421106932         -0.4374
H793       H    1.0978752804    0.5142626096   -0.0387452535           0.553
C794       C    1.1075830916    0.4858647963    0.0431133326          0.5481
C795       C    1.1559213263    0.5044139159    0.0425360422         -0.4349
C796       C    1.1459241629    0.4942344424    0.0643436989         -0.4389
C797       C    1.1220874849    0.4842766215    0.0644566463           0.552
Br798     Br    1.1881484167    0.5213477796    0.0497197749         -0.4182
H799       H    1.1571593304    0.4941243413    0.0824463179         -0.4346
H800       H    1.1141468997    0.4756198558    0.0822023587          0.5485
H801       H    1.0882847938    0.4773903060    0.0449552752          0.5408
O802       O    1.2001469468    0.4995117116   -0.0008785282          0.5541
C803       C    1.2148186528    0.5077494466   -0.0438478382          0.5522
C804       C    1.1859429465    0.5130902018   -0.0410573217          0.5557
C805       C    1.2482847244    0.5130412080   -0.0070958791         -0.4341
H806       H    1.1752647889    0.4957814942   -0.0477217596          0.5399
H807       H    1.2239238196    0.5264501103   -0.0486584781         -0.4334
H808       H    1.2187666376    0.4937496807   -0.0595139846          0.5378
H809       H    1.1804613749    0.5298887596   -0.0531124798         -0.4336
H810       H    1.2283416670    0.4765252582   -0.0183955049          0.5332
C811       C    1.2237250944    0.4973684990   -0.0169951331            0.55
H812       H    1.1871542494    0.5378295145   -0.0064087874          -0.417
O813       O    1.2621346404    0.5005176390    0.0147314131         -0.4389
C814       C    1.2816826616    0.4856784060   -0.0246314675          0.5418
C815       C    1.2700322212    0.5129798486   -0.0280632916         -0.4376
C816       C    1.3109470988    0.4902076724    0.0145533990          0.5551
H817       H    1.2843037034    0.5281232671   -0.0233598199         -0.4238
H818       H    1.2686876067    0.4707420286   -0.0326178195          0.5275
H819       H    1.3005381828    0.4836254135   -0.0344599819          0.5389
H820       H    1.2638902711    0.5161666643   -0.0481965929         -0.4396
H821       H    1.2783384597    0.4631757157    0.0111299032          0.5312
C822       C    1.2830896997    0.4832457379    0.0054075173          0.5463
H823       H    1.2426173929    0.5329596085   -0.0016729796         -0.4173
N824       N    1.3242512911    0.5081060611    0.0018953979         -0.4326
C825       C    1.3495615471    0.5074207886    0.0037456714         -0.4315
C826       C    1.3618437921    0.4904720506    0.0194469757         -0.4412
N827       N    1.3488204910    0.4746167738    0.0345819157          0.5487
C828       C    1.3234037498    0.4743424058    0.0314823842          0.5466
H829       H    1.3123715806    0.4591317979    0.0414497936           0.536
C830       C    1.3871163184    0.5175805751   -0.0150154677         -0.4256
C831       C    1.3997791751    0.5000000000    0.0000000000         -0.4359
N832       N    1.3620118967    0.5217803789   -0.0131166684          -0.423
N833       N    1.3870808116    0.4868962261    0.0181448603          0.5568
H834       H    1.3976459211    0.5283400476   -0.0300304987         -0.4197
C735       C    1.0000000000    0.5000000000   -0.1002208249          0.5499
C736       C    0.9763903468    0.5046276902   -0.1099756790          0.5541
C737       C    0.9732467479    0.5101383761   -0.1348687240         -0.4401
C738       C    0.9930580890    0.5117545696   -0.1519581337         -0.4379
C739       C    1.0178383210    0.5097337428   -0.1421183804           -0.44
C740       C    1.0209692553    0.5023292717   -0.1164297813          0.5527
C741       C    0.9842526240    0.5144602035   -0.1810700586         -0.4343
H742       H    0.9530349471    0.5131830113   -0.1405381964         -0.4374
H743       H    0.9589082787    0.5040108777   -0.0978752804           0.553
C744       C    1.0452859000    0.4972159933   -0.1075830916          0.5481
C745       C    1.0400408891    0.5150174810   -0.1559213263         -0.4349
C746       C    1.0637129036    0.5106779757   -0.1459241629         -0.4389
C747       C    1.0663380377    0.5010717472   -0.1220874849           0.552
Br748     Br    1.0427132103    0.5332169440   -0.1881484167         -0.4182
H749       H    1.0812560461    0.5151450870   -0.1571593304         -0.4346
H750       H    1.0856951739    0.4971792961   -0.1141468997          0.5485
H751       H    1.0492091719    0.4894818045   -0.0882847938          0.5408
O752       O    0.9992733399    0.4993055921   -0.2001469468          0.5541
C753       C    0.9556167899    0.4964198459   -0.2148186528          0.5522
C754       C    0.9569674294    0.5022923599   -0.1859429465          0.5557
C755       C    0.9898394575    0.5108253399   -0.2482847244         -0.4341
H756       H    0.9548922603    0.4838614141   -0.1752647889          0.5399
H757       H    0.9462374821    0.5132984022   -0.2239238196         -0.4334
H758       H    0.9439959434    0.4789162030   -0.2187666376          0.5378
H759       H    0.9410592019    0.5155001863   -0.1804613749         -0.4336
H760       H    0.9881322019    0.4726391982   -0.2283416670          0.5332
C761       C    0.9842210816    0.4931600380   -0.2237250944            0.55
H762       H    0.9842414739    0.5349830469   -0.1871542494          -0.417
O763       O    1.0141227079    0.5042227482   -0.2621346404         -0.4389
C764       C    0.9797859995    0.4799198748   -0.2816826616          0.5426
C765       C    0.9695677820    0.5054685384   -0.2700322212         -0.4376
C766       C    1.0165552899    0.4942022870   -0.3109470988          0.5551
H767       H    0.9702926653    0.5213090029   -0.2843037034         -0.4238
H768       H    0.9758324315    0.4634503123   -0.2686876067          0.5275
H769       H    0.9707950364    0.4754503048   -0.3005381828          0.5389
H770       H    0.9492825031    0.5034652721   -0.2638902711         -0.4396
H771       H    1.0200725052    0.4671823646   -0.2783384597          0.5312
C772       C    1.0094650612    0.4851555007   -0.2830896997          0.5463
H773       H    0.9900540259    0.5314676381   -0.2426173929         -0.4173
N774       N    0.9997859040    0.5083219542   -0.3242512911         -0.4326
C775       C    1.0017492847    0.5081263866   -0.3495615471         -0.4315
C776       C    1.0212233117    0.4956944540   -0.3618437921         -0.4412
N777       N    1.0398730847    0.4841774154   -0.3488204910          0.5487
C778       C    1.0369434289    0.4831288496   -0.3234037498          0.5466
H779       H    1.0504304427    0.4709299848   -0.3123715806           0.536
C780       C    0.9810299254    0.5132165487   -0.3871163184         -0.4256
C781       C    1.0000000000    0.5000000000   -0.3997791751         -0.4359
N782       N    0.9818060393    0.5177598336   -0.3620118967          -0.423
N783       N    1.0208668749    0.4919056575   -0.3870808116          0.5568
H784       H    0.9637836300    0.5198333984   -0.3976459211         -0.4197
C685       C    1.0000000000    0.5000000000    0.1002208249          0.5499
C686       C    0.9763903468    0.4953723098    0.1099756790          0.5541
C687       C    0.9732467479    0.4898616239    0.1348687240         -0.4401
C688       C    0.9930580890    0.4882454304    0.1519581337         -0.4379
C689       C    1.0178383210    0.4902662572    0.1421183804           -0.44
C690       C    1.0209692553    0.4976707283    0.1164297813          0.5527
C691       C    0.9842526240    0.4855397965    0.1810700586         -0.4343
H692       H    0.9530349471    0.4868169887    0.1405381964         -0.4374
H693       H    0.9589082787    0.4959891223    0.0978752804           0.553
C694       C    1.0452859000    0.5027840067    0.1075830916          0.5481
C695       C    1.0400408891    0.4849825190    0.1559213263         -0.4349
C696       C    1.0637129036    0.4893220243    0.1459241629         -0.4389
C697       C    1.0663380377    0.4989282528    0.1220874849           0.552
Br698     Br    1.0427132103    0.4667830560    0.1881484167         -0.4182
H699       H    1.0812560461    0.4848549130    0.1571593304         -0.4346
H700       H    1.0856951739    0.5028207039    0.1141468997          0.5485
H701       H    1.0492091719    0.5105181955    0.0882847938          0.5408
O702       O    0.9992733399    0.5006944079    0.2001469468          0.5541
C703       C    0.9556167899    0.5035801541    0.2148186528          0.5522
C704       C    0.9569674294    0.4977076401    0.1859429465          0.5557
C705       C    0.9898394575    0.4891746601    0.2482847244         -0.4341
H706       H    0.9548922603    0.5161385859    0.1752647889          0.5399
H707       H    0.9462374821    0.4867015978    0.2239238196         -0.4334
H708       H    0.9439959434    0.5210837970    0.2187666376          0.5378
H709       H    0.9410592019    0.4844998137    0.1804613749         -0.4336
H710       H    0.9881322019    0.5273608018    0.2283416670          0.5332
C711       C    0.9842210816    0.5068399620    0.2237250944            0.55
H712       H    0.9842414739    0.4650169531    0.1871542494          -0.417
O713       O    1.0141227079    0.4957772518    0.2621346404         -0.4389
C714       C    0.9797859995    0.5200801252    0.2816826616          0.5418
C715       C    0.9695677820    0.4945314616    0.2700322212         -0.4376
C716       C    1.0165552899    0.5057977130    0.3109470988          0.5551
H717       H    0.9702926653    0.4786909971    0.2843037034         -0.4238
H718       H    0.9758324315    0.5365496877    0.2686876067          0.5275
H719       H    0.9707950364    0.5245496952    0.3005381828          0.5389
H720       H    0.9492825031    0.4965347279    0.2638902711         -0.4396
H721       H    1.0200725052    0.5328176354    0.2783384597          0.5312
C722       C    1.0094650612    0.5148444993    0.2830896997          0.5463
H723       H    0.9900540259    0.4685323619    0.2426173929         -0.4173
N724       N    0.9997859040    0.4916780458    0.3242512911         -0.4326
C725       C    1.0017492847    0.4918736134    0.3495615471         -0.4315
C726       C    1.0212233117    0.5043055460    0.3618437921         -0.4412
N727       N    1.0398730847    0.5158225846    0.3488204910          0.5487
C728       C    1.0369434289    0.5168711504    0.3234037498          0.5466
H729       H    1.0504304427    0.5290700152    0.3123715806           0.536
C730       C    0.9810299254    0.4867834513    0.3871163184         -0.4256
C731       C    1.0000000000    0.5000000000    0.3997791751         -0.4359
N732       N    0.9818060393    0.4822401664    0.3620118967          -0.423
N733       N    1.0208668749    0.5080943425    0.3870808116          0.5568
H734       H    0.9637836300    0.4801666016    0.3976459211         -0.4197
C635       C    1.0000000000   -0.1002208249    0.5000000000          0.5499
C636       C    1.0104916016   -0.1099756790    0.4783491909          0.5541
C637       C    1.0166214586   -0.1348687240    0.4767137319         -0.4401
C638       C    1.0131355516   -0.1519581337    0.4962828344         -0.4379
C639       C    1.0048664313   -0.1421183804    0.5197299086           -0.44
C640       C    0.9969085437   -0.1164297813    0.5208705072          0.5527
C641       C    1.0179958457   -0.1810700586    0.4884576053         -0.4343
H642       H    1.0247163613   -0.1405381964    0.4579451612         -0.4374
H643       H    1.0143502993   -0.0978752804    0.4612871389           0.553
C644       C    0.9857672162   -0.1075830916    0.5430812175          0.5481
C645       C    1.0043175954   -0.1559213263    0.5425459270         -0.4349
C646       C    0.9940887715   -0.1459241629    0.5643304798         -0.4389
C647       C    0.9841307204   -0.1220874849    0.5644208806           0.552
Br648     Br    1.0212351504   -0.1881484167    0.5497679826         -0.4182
H649       H    0.9939376832   -0.1571593304    0.5824328030         -0.4346
H650       H    0.9754337975   -0.1141468997    0.5821469470          0.5485
H651       H    0.9772885772   -0.0882847938    0.5449039676          0.5408
O652       O    0.9995137020   -0.2001469468    0.4991203685          0.5541
C653       C    1.0078487061   -0.2148186528    0.4561698203          0.5522
C654       C    1.0131831294   -0.1859429465    0.4589724221          0.5557
C655       C    1.0130572409   -0.2482847244    0.4929336667         -0.4341
H656       H    0.9958895556   -0.1752647889    0.4522688113          0.5399
H657       H    1.0265602140   -0.2239238196    0.4514015344         -0.4334
H658       H    0.9938844470   -0.2187666376    0.4404720161          0.5378
H659       H    1.0300089391   -0.1804613749    0.4469553298         -0.4336
H660       H    0.9765669690   -0.2283416670    0.4815513912          0.5332
C661       C    0.9974069857   -0.2237250944    0.4829989523            0.55
H662       H    1.0378439281   -0.1871542494    0.4936768818          -0.417
O663       O    1.0004842831   -0.2621346404    0.5147325473         -0.4389
C664       C    0.9857342128   -0.2816826616    0.4753361690          0.5418
C665       C    1.0130433556   -0.2700322212    0.4719661690         -0.4376
C666       C    0.9901747460   -0.3109470988    0.5145311901          0.5551
H667       H    1.0281760858   -0.2843037034    0.4767039161         -0.4238
H668       H    0.9708159562   -0.2686876067    0.4673160188          0.5275
H669       H    0.9837034790   -0.3005381828    0.4655030314          0.5389
H670       H    1.0162757486   -0.2638902711    0.4518401349         -0.4396
H671       H    0.9631506100   -0.2783384597    0.5110464979          0.5312
C672       C    0.9832335372   -0.2830896997    0.5053695688          0.5463
H673       H    1.0329633119   -0.2426173929    0.4984016512         -0.4173
N674       N    1.0081017488   -0.3242512911    0.5019137466         -0.4326
C675       C    1.0074122887   -0.3495615471    0.5037624638         -0.4315
C676       C    0.9904280436   -0.3618437921    0.5194253529         -0.4412
N677       N    0.9745385392   -0.3488204910    0.5345243549          0.5487
C678       C    0.9742711898   -0.3234037498    0.5314242101          0.5466
H679       H    0.9590380529   -0.3123715806    0.5413571544           0.536
C680       C    1.0176145277   -0.3871163184    0.4850243764         -0.4256
C681       C    1.0000000000   -0.3997791751    0.5000000000         -0.4359
N682       N    1.0218100216   -0.3620118967    0.4869326799          -0.423
N683       N    0.9868551765   -0.3870808116    0.5181151445          0.5568
H684       H    1.0284079693   -0.3976459211    0.4700337452         -0.4197
C585       C    1.0000000000    0.3997791751    0.5000000000          0.5499
C586       C    0.9895083984    0.3900243210    0.5216508091          0.5541
C587       C    0.9833785414    0.3651312760    0.5232862681         -0.4401
C588       C    0.9868644484    0.3480418663    0.5037171656         -0.4379
C589       C    0.9951335687    0.3578816196    0.4802700914           -0.44
C590       C    1.0030914563    0.3835702187    0.4791294928          0.5527
C591       C    0.9820041543    0.3189299414    0.5115423947         -0.4343
H592       H    0.9752836387    0.3594618036    0.5420548388         -0.4374
H593       H    0.9856497007    0.4021247196    0.5387128611           0.553
C594       C    1.0142327838    0.3924169084    0.4569187825          0.5481
C595       C    0.9956824046    0.3440786737    0.4574540730         -0.4349
C596       C    1.0059112285    0.3540758371    0.4356695202         -0.4389
C597       C    1.0158692796    0.3779125151    0.4355791194           0.552
Br598     Br    0.9787648496    0.3118515833    0.4502320174         -0.4182
H599       H    1.0060623168    0.3428406696    0.4175671970         -0.4346
H600       H    1.0245662025    0.3858531003    0.4178530530          0.5485
H601       H    1.0227114228    0.4117152062    0.4550960324          0.5408
O602       O    1.0004862980    0.2998530532    0.5008796315          0.5541
C603       C    0.9921512939    0.2851813472    0.5438301797          0.5522
C604       C    0.9868168706    0.3140570535    0.5410275779          0.5557
C605       C    0.9869427591    0.2517152756    0.5070663333         -0.4341
H606       H    1.0041104444    0.3247352111    0.5477311887          0.5399
H607       H    0.9734397860    0.2760761804    0.5485984656         -0.4334
H608       H    1.0061155530    0.2812333624    0.5595279839          0.5378
H609       H    0.9699910609    0.3195386251    0.5530446702         -0.4336
H610       H    1.0234330310    0.2716583330    0.5184486088          0.5332
C611       C    1.0025930143    0.2762749056    0.5170010477            0.55
H612       H    0.9621560719    0.3128457506    0.5063231182          -0.417
O613       O    0.9995157169    0.2378653596    0.4852674527         -0.4389
C614       C    1.0142657872    0.2183173384    0.5246638310          0.5418
C615       C    0.9869566444    0.2299677788    0.5280338310         -0.4376
C616       C    1.0098252540    0.1890529012    0.4854688099          0.5551
H617       H    0.9718239142    0.2156962966    0.5232960839         -0.4238
H618       H    1.0291840438    0.2313123933    0.5326839812          0.5275
H619       H    1.0162965210    0.1994618172    0.5344969686          0.5389
H620       H    0.9837242514    0.2361097289    0.5481598651         -0.4396
H621       H    1.0368493900    0.2216615403    0.4889535021          0.5312
C622       C    1.0167664628    0.2169103003    0.4946304312          0.5463
H623       H    0.9670366881    0.2573826071    0.5015983488         -0.4173
N624       N    0.9918982512    0.1757487089    0.4980862534         -0.4326
C625       C    0.9925877113    0.1504384529    0.4962375362         -0.4315
C626       C    1.0095719564    0.1381562079    0.4805746471         -0.4412
N627       N    1.0254614608    0.1511795090    0.4654756451          0.5487
C628       C    1.0257288102    0.1765962502    0.4685757899          0.5466
H629       H    1.0409619471    0.1876284194    0.4586428456           0.536
C630       C    0.9823854723    0.1128836816    0.5149756236         -0.4256
C631       C    1.0000000000    0.1002208249    0.5000000000         -0.4359
N632       N    0.9781899784    0.1379881033    0.5130673201          -0.423
N633       N    1.0131448235    0.1129191884    0.4818848555          0.5568
H634       H    0.9715920307    0.1023540789    0.5299662548         -0.4197
C535       C    0.8997791751   -0.0000000000    0.5000000000          0.5499
C536       C    0.8900243210    0.0062283783    0.5232387294          0.5541
C537       C    0.8651312760    0.0119407795    0.5259988644         -0.4401
C538       C    0.8480418663    0.0122009779    0.5061234119         -0.4379
C539       C    0.8578816196    0.0084934855    0.4815389017           -0.44
C540       C    0.8835702187    0.0008925800    0.4789206624          0.5527
C541       C    0.8189299414    0.0155013204    0.5147236682         -0.4343
H542       H    0.8594618036    0.0163578737    0.5459557172         -0.4374
H543       H    0.9021247196    0.0068062455    0.5407221282           0.553
C544       C    0.8924169084   -0.0058685099    0.4550097341          0.5481
C545       C    0.8440786737    0.0122494619    0.4590274700         -0.4349
C546       C    0.8540758371    0.0063043399    0.4357068546         -0.4389
C547       C    0.8779125151   -0.0034586647    0.4337435171           0.552
Br548     Br    0.8118515833    0.0302240822    0.4551191738         -0.4182
H549       H    0.8428406696    0.0095636237    0.4178997211         -0.4346
H550       H    0.8858531003   -0.0086632625    0.4146972035          0.5485
H551       H    0.9117152062   -0.0138524452    0.4516235099          0.5408
O552       O    0.7998530532   -0.0006431902    0.5007723624          0.5541
C553       C    0.7851813472   -0.0005424223    0.5445240679          0.5522
C554       C    0.8140570535    0.0052242084    0.5427757489          0.5557
C555       C    0.7517152756    0.0114936034    0.5093979619         -0.4341
H556       H    0.8247352111   -0.0130221136    0.5461040854          0.5399
H557       H    0.7760761804    0.0169369576    0.5527294538         -0.4334
H558       H    0.7812333624   -0.0172120623    0.5573125271          0.5378
H559       H    0.8195386251    0.0194870511    0.5577453747         -0.4336
H560       H    0.7716583330   -0.0264869553    0.5137076368          0.5332
C561       C    0.7762749056   -0.0057470181    0.5162089830            0.55
H562       H    0.8128457506    0.0359770634    0.5133340026          -0.417
O563       O    0.7378653596    0.0032489529    0.4856220034         -0.4389
C564       C    0.7183173384   -0.0186535867    0.5215374313          0.5418
C565       C    0.7299677788    0.0075329408    0.5299879911         -0.4376
C566       C    0.6890529012   -0.0069141759    0.4838790424          0.5551
H567       H    0.7156962966    0.0232869866    0.5281836050         -0.4238
H568       H    0.7313123933   -0.0348148891    0.5266059116          0.5275
H569       H    0.6994618172   -0.0224990538    0.5308124977          0.5389
H570       H    0.7361097289    0.0069189210    0.5503626958         -0.4396
H571       H    0.7216615403   -0.0341111532    0.4822142785          0.5312
C572       C    0.7169103003   -0.0154559196    0.4915702258          0.5463
H573       H    0.7573826071    0.0320731163    0.5077749508         -0.4173
N574       N    0.6757487089    0.0083171597    0.4996455805         -0.4326
C575       C    0.6504384529    0.0079880374    0.4977001271         -0.4315
C576       C    0.6381562079   -0.0057441053    0.4791200590         -0.4412
N577       N    0.6511795090   -0.0185072280    0.4612998763          0.5487
C578       C    0.6765962502   -0.0193533844    0.4642942698          0.5466
H579       H    0.6876284194   -0.0324443583    0.4516713445           0.536
C580       C    0.6128836816    0.0144805316    0.5180237370         -0.4256
C581       C    0.6002208249   -0.0000000000    0.5000000000         -0.4359
N582       N    0.6379881033    0.0189602473    0.5169393305          -0.423
N583       N    0.6129191884   -0.0094997373    0.4797342694          0.5568
H584       H    0.6023540789    0.0222590985    0.5347781782         -0.4197
C485       C    1.1002208249   -0.0000000000    0.5000000000          0.5499
C486       C    1.1099756790    0.0197980194    0.5136700281          0.5541
C487       C    1.1348687240    0.0204797392    0.5199775736         -0.4401
C488       C    1.1519581337    0.0016709312    0.5135487278         -0.4379
C489       C    1.1421183804   -0.0202412127    0.5018013200           -0.44
C490       C    1.1164297813   -0.0201551387    0.4937625681          0.5527
C491       C    1.1810700586    0.0086636211    0.5195453065         -0.4343
H492       H    1.1405381964    0.0377946428    0.5308394707         -0.4374
H493       H    1.0978752804    0.0360722497    0.5200850568           0.553
C494       C    1.1075830916   -0.0404074494    0.4793650427          0.5481
C495       C    1.1559213263   -0.0427067887    0.4977801490         -0.4349
C496       C    1.1459241629   -0.0626770536    0.4843494344         -0.4389
C497       C    1.1220874849   -0.0612480961    0.4744940280           0.552
Br498     Br    1.1881484167   -0.0524238199    0.5133987616         -0.4182
H499       H    1.1571593304   -0.0805446906    0.4814400564         -0.4346
H500       H    1.1141468997   -0.0774408945    0.4631960999          0.5485
H501       H    1.0882847938   -0.0409161525    0.4707076204          0.5408
O502       O    1.2001469468    0.0009434927    0.4996535049          0.5541
C503       C    1.2148186528    0.0421210335    0.5144397155          0.5522
C504       C    1.1859429465    0.0385378612    0.5192844575          0.5557
C505       C    1.2482847244    0.0049928809    0.5139819794         -0.4341
H506       H    1.1752647889    0.0477998408    0.5032151755          0.5399
H507       H    1.2239238196    0.0439806308    0.5336594703         -0.4334
H508       H    1.2187666376    0.0597644278    0.5030321643          0.5378
H509       H    1.1804613749    0.0478490248    0.5377457850         -0.4336
H510       H    1.2283416670    0.0218057380    0.4796537990          0.5332
C511       C    1.2237250944    0.0171976300    0.5000294479            0.55
H512       H    1.1871542494    0.0004791360    0.5383655464          -0.417
O513       O    1.2621346404   -0.0146341350    0.4982323536         -0.4389
C514       C    1.2816826616    0.0265505656    0.4896614938          0.5418
C515       C    1.2700322212    0.0257173466    0.5171651650         -0.4376
C516       C    1.3109470988   -0.0128632398    0.4880740550          0.5551
H517       H    1.2843037034    0.0187277094    0.5313986025         -0.4238
H518       H    1.2686876067    0.0367515278    0.4761404894          0.5275
H519       H    1.3005381828    0.0365783609    0.4891537588          0.5389
H520       H    1.2638902711    0.0451152280    0.5234283761         -0.4396
H521       H    1.2783384597   -0.0052989276    0.4618971913          0.5312
C522       C    1.2830896997   -0.0027504106    0.4826108717          0.5463
H523       H    1.2426173929   -0.0034462458    0.5328216094         -0.4173
N524       N    1.3242512911   -0.0031266427    0.5077152359         -0.4326
C525       C    1.3495615471   -0.0048486231    0.5067519634         -0.4315
C526       C    1.3618437921   -0.0177388009    0.4875781794         -0.4412
N527       N    1.3488204910   -0.0302385992    0.4695723122          0.5487
C528       C    1.3234037498   -0.0271339382    0.4697807668          0.5466
H529       H    1.3123715806   -0.0346281558    0.4532112604           0.536
C530       C    1.3871163184    0.0121148486    0.5196919104         -0.4256
C531       C    1.3997791751   -0.0000000000    0.5000000000         -0.4359
N532       N    1.3620118967    0.0095891710    0.5235473926          -0.423
N533       N    1.3870808116   -0.0158991573    0.4842468528          0.5568
H534       H    1.3976459211    0.0252845384    0.5326447739         -0.4197
C435       C   -0.0000000000   -0.3997791751    0.0000000000          0.5499
C436       C   -0.0221102752   -0.3900243210   -0.0094850920          0.5541
C437       C   -0.0278130350   -0.3651312760   -0.0067050914         -0.4401
C438       C   -0.0123595892   -0.3480418663    0.0057966017         -0.4379
C439       C    0.0092482357   -0.3578816196    0.0180947943           -0.44
C440       C    0.0160079697   -0.3835702187    0.0137433649          0.5527
C441       C   -0.0211580489   -0.3189299414    0.0030682735         -0.4343
H442       H   -0.0462243498   -0.3594618036   -0.0155826012         -0.4374
H443       H   -0.0362030153   -0.4021247196   -0.0198483850           0.553
C444       C    0.0389759315   -0.3924169084    0.0232258520          0.5481
C445       C    0.0246096472   -0.3440786737    0.0349737445         -0.4349
C446       C    0.0466089977   -0.3540758371    0.0447320309         -0.4389
C447       C    0.0541919588   -0.3779125151    0.0382768271           0.552
Br448     Br    0.0165588590   -0.3118515833    0.0515129876         -0.4182
H449       H    0.0585819583   -0.3428406696    0.0583101437         -0.4346
H450       H    0.0723751829   -0.3858531003    0.0459722972          0.5485
H451       H    0.0465759922   -0.4117152062    0.0190486741          0.5408
O452       O   -0.0002088261   -0.2998530532   -0.0009831729          0.5541
C453       C   -0.0346431279   -0.2851813472   -0.0279739259          0.5522
C454       C   -0.0368375356   -0.3140570535   -0.0223618653          0.5557
C455       C   -0.0144944572   -0.2517152756    0.0032148591         -0.4341
H456       H   -0.0281630165   -0.3247352111   -0.0387557303          0.5399
H457       H   -0.0519041815   -0.2760761804   -0.0193186898         -0.4334
H458       H   -0.0343761341   -0.2812333624   -0.0489822647          0.5378
H459       H   -0.0574225453   -0.3195386251   -0.0204187353         -0.4336
H460       H    0.0056190135   -0.2716583330   -0.0292896704          0.5332
C461       C   -0.0091782280   -0.2762749056   -0.0145437092            0.55
H462       H   -0.0327349955   -0.3128457506    0.0200141147          -0.417
O463       O    0.0092853744   -0.2378653596    0.0114483319         -0.4389
C464       C   -0.0053788203   -0.2183173384   -0.0279800918          0.5418
C465       C   -0.0282197449   -0.2299677788   -0.0126360914         -0.4376
C466       C    0.0169427681   -0.1890529012    0.0045424343          0.5551
H467       H   -0.0365494875   -0.2156962966    0.0008569127         -0.4238
H468       H    0.0006385805   -0.2313123933   -0.0438125924          0.5275
H469       H   -0.0102861877   -0.1994618172   -0.0367397847          0.5389
H470       H   -0.0438464950   -0.2361097289   -0.0257246472         -0.4396
H471       H    0.0350778584   -0.2216615403   -0.0157938759          0.5312
C472       C    0.0161853871   -0.2169103003   -0.0069267444          0.5463
H473       H   -0.0259522884   -0.2573826071    0.0203865980         -0.4173
N474       N   -0.0048675300   -0.1757487089    0.0067533630         -0.4326
C475       C   -0.0031355209   -0.1504384529    0.0076984846         -0.4315
C476       C    0.0199575501   -0.1381562079    0.0084061215         -0.4412
N477       N    0.0418540953   -0.1511795090    0.0094048803          0.5487
C478       C    0.0400251888   -0.1765962502    0.0068874462          0.5466
H479       H    0.0580415427   -0.1876284194    0.0044130097           0.536
C480       C   -0.0231190502   -0.1128836816    0.0002245193         -0.4256
C481       C   -0.0000000000   -0.1002208249    0.0000000000         -0.4359
N482       N   -0.0250388008   -0.1379881033    0.0044147876          -0.423
N483       N    0.0217986905   -0.1129191884    0.0050756220          0.5568
H484       H   -0.0410943053   -0.1023540789   -0.0040307843         -0.4197
C385       C    0.0000000000    0.1002208249   -0.0000000000          0.5499
C386       C    0.0019598026    0.1099756790    0.0239789577          0.5541
C387       C    0.0070845928    0.1348687240    0.0277187971         -0.4401
C388       C    0.0109050056    0.1519581337    0.0082122401         -0.4379
C389       C    0.0116665691    0.1421183804   -0.0166385880           -0.44
C390       C    0.0046584448    0.1164297813   -0.0205775136          0.5527
C391       C    0.0126094844    0.1810700586    0.0172649426         -0.4343
H392       H    0.0078510435    0.1405381964    0.0481442530         -0.4374
H393       H   -0.0006071446    0.0978752804    0.0412825396           0.553
C394       C    0.0022951183    0.1075830916   -0.0453133078          0.5481
C395       C    0.0193988168    0.1559213263   -0.0381114608         -0.4349
C396       C    0.0177323635    0.1459241629   -0.0621201781         -0.4389
C397       C    0.0084797441    0.1220874849   -0.0658025670           0.552
Br398     Br    0.0377829302    0.1881484167   -0.0387328528         -0.4182
H399       H    0.0241323097    0.1571593304   -0.0790540974         -0.4346
H400       H    0.0067752626    0.1141468997   -0.0854734755          0.5485
H401       H   -0.0049520968    0.0882847938   -0.0500764592          0.5408
O402       O   -0.0007712767    0.2001469468    0.0006444917          0.5541
C403       C   -0.0085185056    0.2148186528    0.0437049414          0.5522
C404       C   -0.0025318260    0.1859429465    0.0430191458          0.5557
C405       C    0.0096218467    0.2482847244    0.0113068419         -0.4341
H406       H   -0.0210792271    0.1752647889    0.0430212543          0.5399
H407       H    0.0072059475    0.2239238196    0.0549120219         -0.4334
H408       H   -0.0272113505    0.2187666376    0.0532965595          0.5378
H409       H    0.0088151500    0.1804613749    0.0603039517         -0.4336
H410       H   -0.0285158402    0.2283416670    0.0087352713          0.5332
C411       C   -0.0085607381    0.2237250944    0.0149155325            0.55
H412       H    0.0330024836    0.1871542494    0.0195698951          -0.417
O413       O    0.0057748066    0.2621346404   -0.0135622302         -0.4389
C414       C   -0.0222136538    0.2816826616    0.0178429490          0.5418
C415       C    0.0020328126    0.2700322212    0.0308527548         -0.4376
C416       C   -0.0039109719    0.3109470988   -0.0170995731          0.5551
H417       H    0.0178550408    0.2843037034    0.0319029286         -0.4238
H418       H   -0.0390219135    0.2686876067    0.0199309133          0.5275
H419       H   -0.0276601520    0.3005381828    0.0262780027          0.5389
H420       H   -0.0022252203    0.2638902711    0.0507870160         -0.4396
H421       H   -0.0303684602    0.2783384597   -0.0236148108          0.5312
C422       C   -0.0136935568    0.2830896997   -0.0110649466          0.5463
H423       H    0.0301587813    0.2426173929    0.0134008420         -0.4173
N424       N    0.0082458783    0.3242512911    0.0011429131         -0.4326
C425       C    0.0082709865    0.3495615471   -0.0008300238         -0.4315
C426       C   -0.0019064024    0.3618437921   -0.0215715626         -0.4412
N427       N   -0.0112667582    0.3488204910   -0.0413917531          0.5487
C428       C   -0.0126362060    0.3234037498   -0.0385976548          0.5466
H429       H   -0.0232511658    0.3123715806   -0.0533636451           0.536
C430       C    0.0110134160    0.3871163184    0.0203284421         -0.4256
C431       C   -0.0000000000    0.3997791751    0.0000000000         -0.4359
N432       N    0.0156149798    0.3620118967    0.0200650019          -0.423
N433       N   -0.0057112974    0.3870808116   -0.0216408394          0.5568
H434       H    0.0156611569    0.3976459211    0.0382062470         -0.4197
C335       C   -0.3997791751   -0.0000000000    0.0000000000          0.5499
C336       C   -0.3900243210   -0.0120822414    0.0208050639          0.5541
C337       C   -0.3651312760   -0.0183172893    0.0219772628         -0.4401
C338       C   -0.3480418663   -0.0133768692    0.0027238587         -0.4379
C339       C   -0.3578816196   -0.0033764705   -0.0200387348           -0.44
C340       C   -0.3835702187    0.0046444547   -0.0205806757          0.5527
C341       C   -0.3189299414   -0.0188090716    0.0101634721         -0.4343
H342       H   -0.3594618036   -0.0277938833    0.0400875047         -0.4374
H343       H   -0.4021247196   -0.0172068135    0.0375305512           0.553
C344       C   -0.3924169084    0.0174164959   -0.0418954545          0.5481
C345       C   -0.3440786737   -0.0011219325   -0.0427497228         -0.4349
C346       C   -0.3540758371    0.0107082754   -0.0637078181         -0.4389
C347       C   -0.3779125151    0.0206451742   -0.0630528403           0.552
Br348     Br   -0.3118515833   -0.0174516600   -0.0512174118         -0.4182
H349       H   -0.3428406696    0.0122134719   -0.0817480874         -0.4346
H350       H   -0.3858531003    0.0306440938   -0.0800784535          0.5485
H351       H   -0.4117152062    0.0260077556   -0.0430786685          0.5408
O352       O   -0.2998530532    0.0004191150    0.0009135534          0.5541
C353       C   -0.2851813472   -0.0111063577    0.0431200146          0.5522
C354       C   -0.3140570535   -0.0162161176    0.0399261139          0.5557
C355       C   -0.2517152756   -0.0135493843    0.0060694970         -0.4341
H356       H   -0.3247352111    0.0005273677    0.0479049477          0.5399
H357       H   -0.2760761804   -0.0301222030    0.0464748181         -0.4334
H358       H   -0.2812333624    0.0016441434    0.0598187065          0.5378
H359       H   -0.3195386251   -0.0338939533    0.0506505024         -0.4336
H360       H   -0.2716583330    0.0219868951    0.0201502990          0.5332
C361       C   -0.2762749056    0.0013136177    0.0171474125            0.55
H362       H   -0.3128457506   -0.0382109717    0.0034736667          -0.417
O363       O   -0.2378653596    0.0006194581   -0.0147274829         -0.4389
C364       C   -0.2183173384    0.0123802883    0.0256621454          0.5418
C365       C   -0.2299677788   -0.0151044604    0.0269792528         -0.4376
C366       C   -0.1890529012    0.0108850263   -0.0137552646          0.5551
H367       H   -0.2156962966   -0.0298402585    0.0211224598         -0.4238
H368       H   -0.2313123933    0.0266566037    0.0347760912          0.5275
H369       H   -0.1994618172    0.0136695507    0.0356196690          0.5389
H370       H   -0.2361097289   -0.0198337504    0.0468069968         -0.4396
H371       H   -0.2216615403    0.0375726553   -0.0082582225          0.5312
C372       C   -0.2169103003    0.0171212448   -0.0040999414          0.5463
H373       H   -0.2573826071   -0.0329905004   -0.0008726582         -0.4173
N374       N   -0.1757487089   -0.0079358374   -0.0025146063         -0.4326
C375       C   -0.1504384529   -0.0071099772   -0.0043065509         -0.4315
C376       C   -0.1381562079    0.0109986514   -0.0186546603         -0.4412
N377       N   -0.1511795090    0.0279734149   -0.0325223788          0.5487
C378       C   -0.1765962502    0.0280080421   -0.0294109203          0.5466
H379       H   -0.1876284194    0.0439417205   -0.0381761775           0.536
C380       C   -0.1128836816   -0.0186857188    0.0136156088         -0.4256
C381       C   -0.1002208249   -0.0000000000    0.0000000000         -0.4359
N382       N   -0.1379881033   -0.0227266594    0.0113987214          -0.423
N383       N   -0.1129191884    0.0144634641   -0.0170807802          0.5568
H384       H   -0.1023540789   -0.0305705969    0.0277565804         -0.4197
C285       C    0.1002208249   -0.0000000000    0.0000000000          0.5499
C286       C    0.1099756790   -0.0170578153    0.0169665016          0.5541
C287       C    0.1348687240   -0.0233837250    0.0164840702         -0.4401
C288       C    0.1519581337   -0.0136259264   -0.0008331664         -0.4379
C289       C    0.1421183804    0.0019279901   -0.0202295403           -0.44
C290       C    0.1164297813    0.0098156429   -0.0186758755          0.5527
C291       C    0.1810700586   -0.0207994028    0.0049459257         -0.4343
H292       H    0.1405381964   -0.0372269206    0.0315224422         -0.4374
H293       H    0.0978752804   -0.0263388485    0.0317943668           0.553
C294       C    0.1075830916    0.0276717242   -0.0359560720          0.5481
C295       C    0.1559213263    0.0099869136   -0.0415819563         -0.4349
C296       C    0.1459241629    0.0268409224   -0.0587615362         -0.4389
C297       C    0.1220874849    0.0362692329   -0.0555556175           0.552
Br298     Br    0.1881484167   -0.0035929504   -0.0539895769         -0.4182
H299       H    0.1571593304    0.0329665255   -0.0757966153         -0.4346
H300       H    0.1141468997    0.0503360581   -0.0694110975          0.5485
H301       H    0.0882847938    0.0362763216   -0.0348741096          0.5408
O302       O    0.2001469468    0.0001682418    0.0009909248          0.5541
C303       C    0.2148186528   -0.0218939565    0.0387729482          0.5522
C304       C    0.1859429465   -0.0260023087    0.0343647637          0.5557
C305       C    0.2482847244   -0.0146589513    0.0023536684         -0.4341
H306       H    0.1752647889   -0.0118962060    0.0464073530          0.5399
H307       H    0.2239238196   -0.0411298897    0.0370889202         -0.4334
H308       H    0.2187666376   -0.0139027429    0.0582039053          0.5378
H309       H    0.1804613749   -0.0458543213    0.0401454191         -0.4336
H310       H    0.2283416670    0.0160186933    0.0251567003          0.5332
C311       C    0.2237250944   -0.0031717297    0.0169026471            0.55
H312       H    0.1871542494   -0.0378070448   -0.0065400370          -0.417
O313       O    0.2621346404    0.0044121922   -0.0140646735         -0.4389
C314       C    0.2816826616    0.0053124316    0.0279927725          0.5418
C315       C    0.2700322212   -0.0215758218    0.0221474314         -0.4376
C316       C    0.3109470988    0.0140758069   -0.0104672231          0.5551
H317       H    0.2843037034   -0.0342922537    0.0126744102         -0.4238
H318       H    0.2686876067    0.0167415745    0.0404928478          0.5275
H319       H    0.3005381828    0.0039790889    0.0379444896          0.5389
H320       H    0.2638902711   -0.0312784250    0.0400740905         -0.4396
H321       H    0.2783384597    0.0384295234    0.0017533949          0.5312
C322       C    0.2830896997    0.0175989253    0.0004736782          0.5463
H323       H    0.2426173929   -0.0316391224   -0.0093861912         -0.4173
N324       N    0.3242512911   -0.0070139365   -0.0044839106         -0.4326
C325       C    0.3495615471   -0.0057522022   -0.0060008605         -0.4315
C326       C    0.3618437921    0.0154543157   -0.0151700630         -0.4412
N327       N    0.3488204910    0.0354412442   -0.0241688906          0.5487
C328       C    0.3234037498    0.0346689392   -0.0211546050          0.5466
H329       H    0.3123715806    0.0523289509   -0.0254946314           0.536
C330       C    0.3871163184   -0.0215742318    0.0083122447         -0.4256
C331       C    0.3997791751   -0.0000000000    0.0000000000         -0.4359
N332       N    0.3620118967   -0.0249032347    0.0051245292          -0.423
N333       N    0.3870808116    0.0183933586   -0.0127526156          0.5568
H334       H    0.3976459211   -0.0367156666    0.0188930934         -0.4197
C235       C    0.0000000000    0.0000000000   -0.1002208249          0.5499
C236       C    0.0041293684    0.0237018893   -0.1099756790          0.5541
C237       C    0.0095726174    0.0269608635   -0.1348687240         -0.4401
C238       C    0.0116057429    0.0071879599   -0.1519581337         -0.4379
C239       C    0.0101073157   -0.0176293396   -0.1421183804           -0.44
C240       C    0.0027704349   -0.0209155412   -0.1164297813          0.5527
C241       C    0.0141253052    0.0160484607   -0.1810700586         -0.4343
H242       H    0.0121908516    0.0472323101   -0.1405381964         -0.4374
H243       H    0.0031444642    0.0411670869   -0.0978752804           0.553
C244       C   -0.0018295225   -0.0453344933   -0.1075830916          0.5481
C245       C    0.0158575391   -0.0397156895   -0.1559213263         -0.4349
C246       C    0.0120176052   -0.0634738561   -0.1459241629         -0.4389
C247       C    0.0024688017   -0.0663007459   -0.1220874849           0.552
Br248     Br    0.0341092521   -0.0420040787   -0.1881484167         -0.4182
H249       H    0.0168532404   -0.0809190149   -0.1571593304         -0.4346
H250       H   -0.0010150624   -0.0857355752   -0.1141468997          0.5485
H251       H   -0.0094793587   -0.0494198016   -0.0882847938          0.5408
O252       O   -0.0007095596    0.0007118724   -0.2001469468          0.5541
C253       C   -0.0045142129    0.0442979539   -0.2148186528          0.5522
C254       C    0.0013854472    0.0430713081   -0.1859429465          0.5557
C255       C    0.0106089246    0.0103863048   -0.2482847244         -0.4341
H256       H   -0.0170851194    0.0447578018   -0.1752647889          0.5399
H257       H    0.0121630405    0.0540306975   -0.2239238196         -0.4334
H258       H   -0.0222587449    0.0555475394   -0.2187666376          0.5378
H259       H    0.0142552649    0.0592542056   -0.1804613749         -0.4336
H260       H   -0.0276047056    0.0112888588   -0.2283416670          0.5332
C261       C   -0.0071707992    0.0156313462   -0.2237250944            0.55
H262       H    0.0346433606    0.0164918854   -0.1871542494          -0.417
O263       O    0.0045192810   -0.0140306301   -0.2621346404         -0.4389
C264       C   -0.0205014422    0.0197865640   -0.2816826616          0.5418
C265       C    0.0048263249    0.0305406515   -0.2700322212         -0.4376
C266       C   -0.0054477192   -0.0166737356   -0.3109470988          0.5551
H267       H    0.0206785435    0.0301495800   -0.2843037034         -0.4238
H268       H   -0.0370506256    0.0233923530   -0.2686876067          0.5275
H269       H   -0.0251593992    0.0286813889   -0.3005381828          0.5389
H270       H    0.0023962299    0.0507792348   -0.2638902711         -0.4396
H271       H   -0.0323875633   -0.0207592969   -0.2783384597          0.5312
C272       C   -0.0146418414   -0.0097756341   -0.2830896997          0.5463
H273       H    0.0312511628    0.0106065771   -0.2426173929         -0.4173
N274       N    0.0083155984    0.0003893356   -0.3242512911         -0.4326
C275       C    0.0081614293   -0.0015777288   -0.3495615471         -0.4315
C276       C   -0.0038575597   -0.0213092918   -0.3618437921         -0.4412
N277       N   -0.0149792191   -0.0401975131   -0.3488204910          0.5487
C278       C   -0.0160892602   -0.0372905935   -0.3234037498          0.5466
H279       H   -0.0280013387   -0.0510315624   -0.3123715806           0.536
C280       C    0.0128140458    0.0192442490   -0.3871163184         -0.4256
C281       C    0.0000000000    0.0000000000   -0.3997791751         -0.4359
N282       N    0.0173726702    0.0185640035   -0.3620118967          -0.423
N283       N   -0.0076530233   -0.0210327383   -0.3870808116          0.5568
H284       H    0.0190661651    0.0366260903   -0.3976459211         -0.4197
C185       C    0.0000000000    0.0000000000    0.3997791751          0.5499
C186       C    0.0218017441   -0.0101742416    0.3900243210          0.5541
C187       C    0.0235265638   -0.0162795565    0.3651312760         -0.4401
C188       C    0.0039086324   -0.0130798558    0.3480418663         -0.4379
C189       C   -0.0196567227   -0.0051540954    0.3578816196           -0.44
C190       C   -0.0209134358    0.0027862833    0.3835702187          0.5527
C191       C    0.0118040182   -0.0178253329    0.3189299414         -0.4343
H192       H    0.0424113698   -0.0240994541    0.3594618036         -0.4374
H193       H    0.0389183376   -0.0137833123    0.4021247196           0.553
C194       C   -0.0432845116    0.0136020033    0.3924169084          0.5481
C195       C   -0.0424783237   -0.0049385782    0.3440786737         -0.4349
C196       C   -0.0644099589    0.0049709602    0.3540758371         -0.4389
C197       C   -0.0646458015    0.0149266286    0.3779125151           0.552
Br198     Br   -0.0494525040   -0.0219598168    0.3118515833         -0.4182
H199       H   -0.0825125578    0.0048576224    0.3428406696         -0.4346
H200       H   -0.0824970078    0.0233637094    0.3858531003          0.5485
H201       H   -0.0452309097    0.0220531140    0.4117152062          0.5408
O202       O    0.0008724346    0.0004990944    0.2998530532          0.5541
C203       C    0.0439401454   -0.0072076670    0.2851813472          0.5522
C204       C    0.0412157593   -0.0125824572    0.3140570535          0.5557
C205       C    0.0072562990   -0.0129526342    0.2517152756         -0.4341
H206       H    0.0476660580    0.0048071874    0.3247352111          0.5399
H207       H    0.0489812307   -0.0258475313    0.2760761804         -0.4334
H208       H    0.0594323072    0.0069843910    0.2812333624          0.5378
H209       H    0.0534773344   -0.0292309453    0.3195386251         -0.4336
H210       H    0.0181043681    0.0236999992    0.2716583330          0.5332
C211       C    0.0169613594    0.0028410620    0.2762749056            0.55
H212       H    0.0068752077   -0.0377475329    0.3128457506          -0.417
O213       O   -0.0147239020   -0.0006994212    0.2378653596         -0.4389
C214       C    0.0244528279    0.0146245155    0.2183173384          0.5418
C215       C    0.0282213570   -0.0126324904    0.2299677788         -0.4376
C216       C   -0.0146731517    0.0096119572    0.1890529012          0.5551
H217       H    0.0237051503   -0.0278328078    0.2156962966         -0.4238
H218       H    0.0322542202    0.0296583262    0.2313123933          0.5275
H219       H    0.0342552547    0.0167986595    0.1994618172          0.5389
H220       H    0.0483924578   -0.0155705693    0.2361097289         -0.4396
H221       H   -0.0115835570    0.0366841092    0.2216615403          0.5312
C222       C   -0.0056138938    0.0166862440    0.2169103003          0.5463
H223       H    0.0020796541   -0.0329364493    0.2573826071         -0.4173
N224       N   -0.0017952049   -0.0081288375    0.1757487089         -0.4326
C225       C   -0.0036537954   -0.0074664540    0.1504384529         -0.4315
C226       C   -0.0195630926    0.0092872005    0.1381562079         -0.4412
N227       N   -0.0348925725    0.0249544675    0.1511795090          0.5487
C228       C   -0.0317966635    0.0252670704    0.1765962502          0.5466
H229       H   -0.0419510497    0.0403534975    0.1876284194           0.536
C230       C    0.0152313111   -0.0173939085    0.1128836816         -0.4256
C231       C   -0.0000000000    0.0000000000    0.1002208249         -0.4359
N232       N    0.0133844923   -0.0216168282    0.1379881033          -0.423
N233       N   -0.0183052108    0.0128788239    0.1129191884          0.5568
H234       H    0.0303779966   -0.0279672392    0.1023540789         -0.4197
loop_
_geom_bond_atom_site_label_1
_geom_bond_atom_site_label_2
_geom_bond_distance
_geom_bond_site_symmetry_2
_ccdc_geom_bond_type
Zn1          O5 1.942       .   S
Zn1          O6 1.922       .   S
Zn1         O10 1.922       .   S
Zn1         O17 1.922       .   S
Zn2          O5 1.942       .   S
Zn2          O7 1.922       .   S
Zn2          O9 1.922       .   S
Zn2         O13 1.922       .   S
Zn3          O5 1.942       .   S
Zn3          O8 1.922       .   S
Zn3         O11 1.922       .   S
Zn3         O14 1.922       .   S
Zn4          O5 1.942       .   S
Zn4         O12 1.922       .   S
Zn4         O15 1.922       .   S
Zn4         O16 1.922       .   S
O6          C18 1.304       .   A
O7          C19 1.304       .   A
O8          C20 1.304       .   A
O9          C18 1.304       .   A
O10         C20 1.304       .   A
O11         C19 1.304       .   A
O12         C21 1.304       .   A
O13         C22 1.304       .   A
O14         C21 1.304       .   A
O15         C22 1.304       .   A
O16         C23 1.304       .   A
O17         C23 1.304       .   A
C18        C231 1.540       .   S
C19        C285 1.540       .   S
C20        C481 1.540       .   S
C21        C235 1.540       .   S
C22        C385 1.540       .   S
C23        C381 1.540       .   S
Zn24        O28 1.942       .   S
Zn24        O29 1.922       .   S
Zn24        O33 1.922       .   S
Zn24        O40 1.922       .   S
Zn25        O28 1.942       .   S
Zn25        O30 1.922       .   S
Zn25        O32 1.922       .   S
Zn25        O36 1.922       .   S
Zn26        O28 1.942       .   S
Zn26        O31 1.922       .   S
Zn26        O34 1.922       .   S
Zn26        O37 1.922       .   S
Zn27        O28 1.942       .   S
Zn27        O35 1.922       .   S
Zn27        O38 1.922       .   S
Zn27        O39 1.922       .   S
O29         C41 1.304       .   A
O30         C42 1.304       .   A
O31         C43 1.304       .   A
O32         C41 1.304       .   A
O33         C43 1.304       .   A
O34         C42 1.304       .   A
O35         C44 1.304       .   A
O36         C45 1.304       .   A
O37         C44 1.304       .   A
O38         C45 1.304       .   A
O39         C46 1.304       .   A
O40         C46 1.304       .   A
C41        C185 1.540   1_655   S
C42        C485 1.540       .   S
C43        C631 1.540       .   S
C44        C281 1.540   1_656   S
C45        C635 1.540       .   S
C46        C535 1.540       .   S
Zn47        O51 1.942       .   S
Zn47        O52 1.922       .   S
Zn47        O56 1.922       .   S
Zn47        O63 1.922       .   S
Zn48        O51 1.942       .   S
Zn48        O53 1.922       .   S
Zn48        O55 1.922       .   S
Zn48        O59 1.922       .   S
Zn49        O51 1.942       .   S
Zn49        O54 1.922       .   S
Zn49        O57 1.922       .   S
Zn49        O60 1.922       .   S
Zn50        O51 1.942       .   S
Zn50        O58 1.922       .   S
Zn50        O61 1.922       .   S
Zn50        O62 1.922       .   S
O52         C64 1.304       .   A
O53         C65 1.304       .   A
O54         C66 1.304       .   A
O55         C64 1.304       .   A
O56         C66 1.304       .   A
O57         C65 1.304       .   A
O58         C67 1.304       .   A
O59         C68 1.304       .   A
O60         C67 1.304       .   A
O61         C68 1.304       .   A
O62         C69 1.304       .   A
O63         C69 1.304       .   A
C64        C431 1.540   1_655   S
C65        C685 1.540       .   S
C66        C785 1.540       .   S
C67        C435 1.540   1_665   S
C68        C881 1.540       .   S
C69        C735 1.540       .   S
Zn70        O74 1.942       .   S
Zn70        O75 1.922       .   S
Zn70        O79 1.922       .   S
Zn70        O86 1.922       .   S
Zn71        O74 1.942       .   S
Zn71        O76 1.922       .   S
Zn71        O78 1.922       .   S
Zn71        O82 1.922       .   S
Zn72        O74 1.942       .   S
Zn72        O77 1.922       .   S
Zn72        O80 1.922       .   S
Zn72        O83 1.922       .   S
Zn73        O74 1.942       .   S
Zn73        O81 1.922       .   S
Zn73        O84 1.922       .   S
Zn73        O85 1.922       .   S
O75         C87 1.304       .   A
O76         C88 1.304       .   A
O77         C89 1.304       .   A
O78         C87 1.304       .   A
O79         C89 1.304       .   A
O80         C88 1.304       .   A
O81         C90 1.304       .   A
O82         C91 1.304       .   A
O83         C90 1.304       .   A
O84         C91 1.304       .   A
O85         C92 1.304       .   A
O86         C92 1.304       .   A
C87        C585 1.540       .   S
C88        C935 1.540       .   S
C89        C781 1.540   1_556   S
C90        C681 1.540   1_565   S
C91        C731 1.540       .   S
C92        C885 1.540       .   S
Zn93        O97 1.942       .   S
Zn93        O98 1.922       .   S
Zn93       O102 1.922       .   S
Zn93       O109 1.922       .   S
Zn94        O97 1.942       .   S
Zn94        O99 1.922       .   S
Zn94       O101 1.922       .   S
Zn94       O105 1.922       .   S
Zn95        O97 1.942       .   S
Zn95       O100 1.922       .   S
Zn95       O103 1.922       .   S
Zn95       O106 1.922       .   S
Zn96        O97 1.942       .   S
Zn96       O104 1.922       .   S
Zn96       O107 1.922       .   S
Zn96       O108 1.922       .   S
O98        C110 1.304       .   A
O99        C111 1.304       .   A
O100       C112 1.304       .   A
O101       C110 1.304       .   A
O102       C112 1.304       .   A
O103       C111 1.304       .   A
O104       C113 1.304       .   A
O105       C114 1.304       .   A
O106       C113 1.304       .   A
O107       C114 1.304       .   A
O108       C115 1.304       .   A
O109       C115 1.304       .   A
C110       C331 1.540   1_565   S
C111       C985 1.540       .   S
C112      C1181 1.540       .   S
C113       C335 1.540   1_665   S
C114      C1131 1.540       .   S
C115      C1035 1.540       .   S
Zn116      O120 1.942       .   S
Zn116      O121 1.922       .   S
Zn116      O125 1.922       .   S
Zn116      O132 1.922       .   S
Zn117      O120 1.942       .   S
Zn117      O122 1.922       .   S
Zn117      O124 1.922       .   S
Zn117      O128 1.922       .   S
Zn118      O120 1.942       .   S
Zn118      O123 1.922       .   S
Zn118      O126 1.922       .   S
Zn118      O129 1.922       .   S
Zn119      O120 1.942       .   S
Zn119      O127 1.922       .   S
Zn119      O130 1.922       .   S
Zn119      O131 1.922       .   S
O121       C133 1.304       .   A
O122       C134 1.304       .   A
O123       C135 1.304       .   A
O124       C133 1.304       .   A
O125       C135 1.304       .   A
O126       C134 1.304       .   A
O127       C136 1.304       .   A
O128       C137 1.304       .   A
O129       C136 1.304       .   A
O130       C137 1.304       .   A
O131       C138 1.304       .   A
O132       C138 1.304       .   A
C133       C531 1.540   1_465   S
C134      C1031 1.540       .   S
C135      C1185 1.540       .   S
C136       C581 1.540   1_565   S
C137      C1235 1.540       .   S
C138      C1081 1.540   1_556   S
Zn139      O143 1.942       .   S
Zn139      O144 1.922       .   S
Zn139      O148 1.922       .   S
Zn139      O155 1.922       .   S
Zn140      O143 1.942       .   S
Zn140      O145 1.922       .   S
Zn140      O147 1.922       .   S
Zn140      O151 1.922       .   S
Zn141      O143 1.942       .   S
Zn141      O146 1.922       .   S
Zn141      O149 1.922       .   S
Zn141      O152 1.922       .   S
Zn142      O143 1.942       .   S
Zn142      O150 1.922       .   S
Zn142      O153 1.922       .   S
Zn142      O154 1.922       .   S
O144       C156 1.304       .   A
O145       C157 1.304       .   A
O146       C158 1.304       .   A
O147       C156 1.304       .   A
O148       C158 1.304       .   A
O149       C157 1.304       .   A
O150       C159 1.304       .   A
O151       C160 1.304       .   A
O152       C159 1.304       .   A
O153       C160 1.304       .   A
O154       C161 1.304       .   A
O155       C161 1.304       .   A
C156       C831 1.540   1_455   S
C157      C1085 1.540   1_545   S
C158      C1335 1.540       .   S
C159       C835 1.540       .   S
C160      C1331 1.540       .   S
C161      C1135 1.540       .   S
Zn162      O166 1.942       .   S
Zn162      O167 1.922       .   S
Zn162      O171 1.922       .   S
Zn162      O178 1.922       .   S
Zn163      O166 1.942       .   S
Zn163      O168 1.922       .   S
Zn163      O170 1.922       .   S
Zn163      O174 1.922       .   S
Zn164      O166 1.942       .   S
Zn164      O169 1.922       .   S
Zn164      O172 1.922       .   S
Zn164      O175 1.922       .   S
Zn165      O166 1.942       .   S
Zn165      O173 1.922       .   S
Zn165      O176 1.922       .   S
Zn165      O177 1.922       .   S
O167       C179 1.304       .   A
O168       C180 1.304       .   A
O169       C181 1.304       .   A
O170       C179 1.304       .   A
O171       C181 1.304       .   A
O172       C180 1.304       .   A
O173       C182 1.304       .   A
O174       C183 1.304       .   A
O175       C182 1.304       .   A
O176       C183 1.304       .   A
O177       C184 1.304       .   A
O178       C184 1.304       .   A
C179       C931 1.540   1_455   S
C180      C1231 1.540   1_545   S
C181      C1285 1.540       .   S
C182       C981 1.540       .   S
C183      C1381 1.540   1_556   S
C184      C1281 1.540       .   S
C1335     C1336 0.022       .   A
C1335     C1340 0.022       .   A
C1336     C1337 0.021       .   A
C1336     H1343 0.018       .   A
C1337     C1338 0.022       .   A
C1337     H1342 0.018       .   A
C1338     C1339 0.022       .   A
C1338     C1341 0.025       .   A
C1339     C1340 0.022       .   A
C1339     C1345 0.022       .   A
C1340     C1344 0.022       .   A
C1341     O1352 0.024       .   A
C1341     C1354 0.025       .   A
C1341     H1362 0.018       .   A
C1344     C1347 0.021       .   A
C1344     H1351 0.018       .   A
C1345     C1346 0.022       .   A
C1345    Br1348 0.031       .   A
C1346     C1347 0.021       .   A
C1346     H1349 0.018       .   A
C1347     H1350 0.018       .   A
O1352     C1361 0.024       .   A
C1353     C1354 0.025       .   A
C1353     H1357 0.018       .   A
C1353     H1358 0.018       .   A
C1353     C1361 0.025       .   A
C1354     H1356 0.018       .   A
C1354     H1359 0.018       .   A
C1355     C1361 0.026       .   A
C1355     O1363 0.024       .   A
C1355     C1365 0.025       .   A
C1355     H1373 0.018       .   A
H1360     C1361 0.018       .   A
O1363     C1372 0.024       .   A
C1364     C1365 0.025       .   A
C1364     H1368 0.018       .   A
C1364     H1369 0.018       .   A
C1364     C1372 0.025       .   A
C1365     H1367 0.018       .   A
C1365     H1370 0.018       .   A
C1366     C1372 0.025       .   A
C1366     N1374 0.021       .   A
C1366     C1378 0.022       .   A
H1371     C1372 0.018       .   A
N1374     C1375 0.021       .   A
C1375     C1376 0.022       .   A
C1375     N1382 0.021       .   A
C1376     N1377 0.021       .   A
C1376     N1383 0.021       .   A
N1377     C1378 0.021       .   A
C1378     H1379 0.018       .   A
C1380     C1381 0.022       .   A
C1380     N1382 0.021       .   A
C1380     H1384 0.018       .   A
C1381     N1383 0.021       .   A
C1285     C1286 0.022       .   A
C1285     C1290 0.022       .   A
C1286     C1287 0.021       .   A
C1286     H1293 0.018       .   A
C1287     C1288 0.022       .   A
C1287     H1292 0.018       .   A
C1288     C1289 0.022       .   A
C1288     C1291 0.025       .   A
C1289     C1290 0.022       .   A
C1289     C1295 0.022       .   A
C1290     C1294 0.022       .   A
C1291     O1302 0.024       .   A
C1291     C1304 0.025       .   A
C1291     H1312 0.018       .   A
C1294     C1297 0.021       .   A
C1294     H1301 0.018       .   A
C1295     C1296 0.022       .   A
C1295    Br1298 0.031       .   A
C1296     C1297 0.021       .   A
C1296     H1299 0.018       .   A
C1297     H1300 0.018       .   A
O1302     C1311 0.024       .   A
C1303     C1304 0.025       .   A
C1303     H1307 0.018       .   A
C1303     H1308 0.018       .   A
C1303     C1311 0.025       .   A
C1304     H1306 0.018       .   A
C1304     H1309 0.018       .   A
C1305     C1311 0.026       .   A
C1305     O1313 0.024       .   A
C1305     C1315 0.025       .   A
C1305     H1323 0.018       .   A
H1310     C1311 0.018       .   A
O1313     C1322 0.024       .   A
C1314     C1315 0.025       .   A
C1314     H1318 0.018       .   A
C1314     H1319 0.018       .   A
C1314     C1322 0.025       .   A
C1315     H1317 0.018       .   A
C1315     H1320 0.018       .   A
C1316     C1322 0.025       .   A
C1316     N1324 0.021       .   A
C1316     C1328 0.022       .   A
H1321     C1322 0.018       .   A
N1324     C1325 0.021       .   A
C1325     C1326 0.022       .   A
C1325     N1332 0.021       .   A
C1326     N1327 0.021       .   A
C1326     N1333 0.021       .   A
N1327     C1328 0.021       .   A
C1328     H1329 0.018       .   A
C1330     C1331 0.022       .   A
C1330     N1332 0.021       .   A
C1330     H1334 0.018       .   A
C1331     N1333 0.021       .   A
C1235     C1236 0.022       .   A
C1235     C1240 0.022       .   A
C1236     C1237 0.021       .   A
C1236     H1243 0.018       .   A
C1237     C1238 0.022       .   A
C1237     H1242 0.018       .   A
C1238     C1239 0.022       .   A
C1238     C1241 0.025       .   A
C1239     C1240 0.022       .   A
C1239     C1245 0.022       .   A
C1240     C1244 0.022       .   A
C1241     O1252 0.024       .   A
C1241     C1254 0.025       .   A
C1241     H1262 0.018       .   A
C1244     C1247 0.021       .   A
C1244     H1251 0.018       .   A
C1245     C1246 0.022       .   A
C1245    Br1248 0.031       .   A
C1246     C1247 0.021       .   A
C1246     H1249 0.018       .   A
C1247     H1250 0.018       .   A
O1252     C1261 0.024       .   A
C1253     C1254 0.025       .   A
C1253     H1257 0.018       .   A
C1253     H1258 0.018       .   A
C1253     C1261 0.025       .   A
C1254     H1256 0.018       .   A
C1254     H1259 0.018       .   A
C1255     C1261 0.026       .   A
C1255     O1263 0.024       .   A
C1255     C1265 0.025       .   A
C1255     H1273 0.018       .   A
H1260     C1261 0.018       .   A
O1263     C1272 0.024       .   A
C1264     C1265 0.025       .   A
C1264     H1268 0.018       .   A
C1264     H1269 0.018       .   A
C1264     C1272 0.025       .   A
C1265     H1267 0.018       .   A
C1265     H1270 0.018       .   A
C1266     C1272 0.025       .   A
C1266     N1274 0.021       .   A
C1266     C1278 0.022       .   A
H1271     C1272 0.018       .   A
N1274     C1275 0.021       .   A
C1275     C1276 0.022       .   A
C1275     N1282 0.021       .   A
C1276     N1277 0.021       .   A
C1276     N1283 0.021       .   A
N1277     C1278 0.021       .   A
C1278     H1279 0.018       .   A
C1280     C1281 0.022       .   A
C1280     N1282 0.021       .   A
C1280     H1284 0.018       .   A
C1281     N1283 0.021       .   A
C1185     C1186 0.022       .   A
C1185     C1190 0.022       .   A
C1186     C1187 0.021       .   A
C1186     H1193 0.018       .   A
C1187     C1188 0.022       .   A
C1187     H1192 0.018       .   A
C1188     C1189 0.022       .   A
C1188     C1191 0.025       .   A
C1189     C1190 0.022       .   A
C1189     C1195 0.022       .   A
C1190     C1194 0.022       .   A
C1191     O1202 0.024       .   A
C1191     C1204 0.025       .   A
C1191     H1212 0.018       .   A
C1194     C1197 0.021       .   A
C1194     H1201 0.018       .   A
C1195     C1196 0.022       .   A
C1195    Br1198 0.031       .   A
C1196     C1197 0.021       .   A
C1196     H1199 0.018       .   A
C1197     H1200 0.018       .   A
O1202     C1211 0.024       .   A
C1203     C1204 0.025       .   A
C1203     H1207 0.018       .   A
C1203     H1208 0.018       .   A
C1203     C1211 0.025       .   A
C1204     H1206 0.018       .   A
C1204     H1209 0.018       .   A
C1205     C1211 0.026       .   A
C1205     O1213 0.024       .   A
C1205     C1215 0.025       .   A
C1205     H1223 0.018       .   A
H1210     C1211 0.018       .   A
O1213     C1222 0.024       .   A
C1214     C1215 0.025       .   A
C1214     H1218 0.018       .   A
C1214     H1219 0.018       .   A
C1214     C1222 0.025       .   A
C1215     H1217 0.018       .   A
C1215     H1220 0.018       .   A
C1216     C1222 0.025       .   A
C1216     N1224 0.021       .   A
C1216     C1228 0.022       .   A
H1221     C1222 0.018       .   A
N1224     C1225 0.021       .   A
C1225     C1226 0.022       .   A
C1225     N1232 0.021       .   A
C1226     N1227 0.021       .   A
C1226     N1233 0.021       .   A
N1227     C1228 0.021       .   A
C1228     H1229 0.018       .   A
C1230     C1231 0.022       .   A
C1230     N1232 0.021       .   A
C1230     H1234 0.018       .   A
C1231     N1233 0.021       .   A
C1135     C1136 0.022       .   A
C1135     C1140 0.022       .   A
C1136     C1137 0.021       .   A
C1136     H1143 0.018       .   A
C1137     C1138 0.022       .   A
C1137     H1142 0.018       .   A
C1138     C1139 0.022       .   A
C1138     C1141 0.025       .   A
C1139     C1140 0.022       .   A
C1139     C1145 0.022       .   A
C1140     C1144 0.022       .   A
C1141     O1152 0.024       .   A
C1141     C1154 0.025       .   A
C1141     H1162 0.018       .   A
C1144     C1147 0.021       .   A
C1144     H1151 0.018       .   A
C1145     C1146 0.022       .   A
C1145    Br1148 0.031       .   A
C1146     C1147 0.021       .   A
C1146     H1149 0.018       .   A
C1147     H1150 0.018       .   A
O1152     C1161 0.024       .   A
C1153     C1154 0.025       .   A
C1153     H1157 0.018       .   A
C1153     H1158 0.018       .   A
C1153     C1161 0.025       .   A
C1154     H1156 0.018       .   A
C1154     H1159 0.018       .   A
C1155     C1161 0.026       .   A
C1155     O1163 0.024       .   A
C1155     C1165 0.025       .   A
C1155     H1173 0.018       .   A
H1160     C1161 0.018       .   A
O1163     C1172 0.024       .   A
C1164     C1165 0.025       .   A
C1164     H1168 0.018       .   A
C1164     H1169 0.018       .   A
C1164     C1172 0.025       .   A
C1165     H1167 0.018       .   A
C1165     H1170 0.018       .   A
C1166     C1172 0.025       .   A
C1166     N1174 0.021       .   A
C1166     C1178 0.022       .   A
H1171     C1172 0.018       .   A
N1174     C1175 0.021       .   A
C1175     C1176 0.022       .   A
C1175     N1182 0.021       .   A
C1176     N1177 0.021       .   A
C1176     N1183 0.021       .   A
N1177     C1178 0.021       .   A
C1178     H1179 0.018       .   A
C1180     C1181 0.022       .   A
C1180     N1182 0.021       .   A
C1180     H1184 0.018       .   A
C1181     N1183 0.021       .   A
C1085     C1086 0.022       .   A
C1085     C1090 0.022       .   A
C1086     C1087 0.021       .   A
C1086     H1093 0.018       .   A
C1087     C1088 0.022       .   A
C1087     H1092 0.018       .   A
C1088     C1089 0.022       .   A
C1088     C1091 0.025       .   A
C1089     C1090 0.022       .   A
C1089     C1095 0.022       .   A
C1090     C1094 0.022       .   A
C1091     O1102 0.024       .   A
C1091     C1104 0.025       .   A
C1091     H1112 0.018       .   A
C1094     C1097 0.021       .   A
C1094     H1101 0.018       .   A
C1095     C1096 0.022       .   A
C1095    Br1098 0.031       .   A
C1096     C1097 0.021       .   A
C1096     H1099 0.018       .   A
C1097     H1100 0.018       .   A
O1102     C1111 0.024       .   A
C1103     C1104 0.025       .   A
C1103     H1107 0.018       .   A
C1103     H1108 0.018       .   A
C1103     C1111 0.025       .   A
C1104     H1106 0.018       .   A
C1104     H1109 0.018       .   A
C1105     C1111 0.026       .   A
C1105     O1113 0.024       .   A
C1105     C1115 0.025       .   A
C1105     H1123 0.018       .   A
H1110     C1111 0.018       .   A
O1113     C1122 0.024       .   A
C1114     C1115 0.025       .   A
C1114     H1118 0.018       .   A
C1114     H1119 0.018       .   A
C1114     C1122 0.025       .   A
C1115     H1117 0.018       .   A
C1115     H1120 0.018       .   A
C1116     C1122 0.025       .   A
C1116     N1124 0.021       .   A
C1116     C1128 0.022       .   A
H1121     C1122 0.018       .   A
N1124     C1125 0.021       .   A
C1125     C1126 0.022       .   A
C1125     N1132 0.021       .   A
C1126     N1127 0.021       .   A
C1126     N1133 0.021       .   A
N1127     C1128 0.021       .   A
C1128     H1129 0.018       .   A
C1130     C1131 0.022       .   A
C1130     N1132 0.021       .   A
C1130     H1134 0.018       .   A
C1131     N1133 0.021       .   A
C1035     C1036 0.022       .   A
C1035     C1040 0.022       .   A
C1036     C1037 0.021       .   A
C1036     H1043 0.018       .   A
C1037     C1038 0.022       .   A
C1037     H1042 0.018       .   A
C1038     C1039 0.022       .   A
C1038     C1041 0.025       .   A
C1039     C1040 0.022       .   A
C1039     C1045 0.022       .   A
C1040     C1044 0.022       .   A
C1041     O1052 0.024       .   A
C1041     C1054 0.025       .   A
C1041     H1062 0.018       .   A
C1044     C1047 0.021       .   A
C1044     H1051 0.018       .   A
C1045     C1046 0.022       .   A
C1045    Br1048 0.031       .   A
C1046     C1047 0.021       .   A
C1046     H1049 0.018       .   A
C1047     H1050 0.018       .   A
O1052     C1061 0.024       .   A
C1053     C1054 0.025       .   A
C1053     H1057 0.018       .   A
C1053     H1058 0.018       .   A
C1053     C1061 0.025       .   A
C1054     H1056 0.018       .   A
C1054     H1059 0.018       .   A
C1055     C1061 0.026       .   A
C1055     O1063 0.024       .   A
C1055     C1065 0.025       .   A
C1055     H1073 0.018       .   A
H1060     C1061 0.018       .   A
O1063     C1072 0.024       .   A
C1064     C1065 0.025       .   A
C1064     H1068 0.018       .   A
C1064     H1069 0.018       .   A
C1064     C1072 0.025       .   A
C1065     H1067 0.018       .   A
C1065     H1070 0.018       .   A
C1066     C1072 0.025       .   A
C1066     N1074 0.021       .   A
C1066     C1078 0.022       .   A
H1071     C1072 0.018       .   A
N1074     C1075 0.021       .   A
C1075     C1076 0.022       .   A
C1075     N1082 0.021       .   A
C1076     N1077 0.021       .   A
C1076     N1083 0.021       .   A
N1077     C1078 0.021       .   A
C1078     H1079 0.018       .   A
C1080     C1081 0.022       .   A
C1080     N1082 0.021       .   A
C1080     H1084 0.018       .   A
C1081     N1083 0.021       .   A
C985       C986 0.022       .   A
C985       C990 0.022       .   A
C986       C987 0.021       .   A
C986       H993 0.018       .   A
C987       C988 0.022       .   A
C987       H992 0.018       .   A
C988       C989 0.022       .   A
C988       C991 0.025       .   A
C989       C990 0.022       .   A
C989       C995 0.022       .   A
C990       C994 0.022       .   A
C991      O1002 0.024       .   A
C991      C1004 0.025       .   A
C991      H1012 0.018       .   A
C994       C997 0.021       .   A
C994      H1001 0.018       .   A
C995       C996 0.022       .   A
C995      Br998 0.031       .   A
C996       C997 0.021       .   A
C996       H999 0.018       .   A
C997      H1000 0.018       .   A
O1002     C1011 0.024       .   A
C1003     C1004 0.025       .   A
C1003     H1007 0.018       .   A
C1003     H1008 0.018       .   A
C1003     C1011 0.025       .   A
C1004     H1006 0.018       .   A
C1004     H1009 0.018       .   A
C1005     C1011 0.026       .   A
C1005     O1013 0.024       .   A
C1005     C1015 0.025       .   A
C1005     H1023 0.018       .   A
H1010     C1011 0.018       .   A
O1013     C1022 0.024       .   A
C1014     C1015 0.025       .   A
C1014     H1018 0.018       .   A
C1014     H1019 0.018       .   A
C1014     C1022 0.025       .   A
C1015     H1017 0.018       .   A
C1015     H1020 0.018       .   A
C1016     C1022 0.025       .   A
C1016     N1024 0.021       .   A
C1016     C1028 0.022       .   A
H1021     C1022 0.018       .   A
N1024     C1025 0.021       .   A
C1025     C1026 0.022       .   A
C1025     N1032 0.021       .   A
C1026     N1027 0.021       .   A
C1026     N1033 0.021       .   A
N1027     C1028 0.021       .   A
C1028     H1029 0.018       .   A
C1030     C1031 0.022       .   A
C1030     N1032 0.021       .   A
C1030     H1034 0.018       .   A
C1031     N1033 0.021       .   A
C935       C936 0.022       .   A
C935       C940 0.022       .   A
C936       C937 0.021       .   A
C936       H943 0.018       .   A
C937       C938 0.022       .   A
C937       H942 0.018       .   A
C938       C939 0.022       .   A
C938       C941 0.025       .   A
C939       C940 0.022       .   A
C939       C945 0.022       .   A
C940       C944 0.022       .   A
C941       O952 0.024       .   A
C941       C954 0.025       .   A
C941       H962 0.018       .   A
C944       C947 0.021       .   A
C944       H951 0.018       .   A
C945       C946 0.022       .   A
C945      Br948 0.031       .   A
C946       C947 0.021       .   A
C946       H949 0.018       .   A
C947       H950 0.018       .   A
O952       C961 0.024       .   A
C953       C954 0.025       .   A
C953       H957 0.018       .   A
C953       H958 0.018       .   A
C953       C961 0.025       .   A
C954       H956 0.018       .   A
C954       H959 0.018       .   A
C955       C961 0.026       .   A
C955       O963 0.024       .   A
C955       C965 0.025       .   A
C955       H973 0.018       .   A
H960       C961 0.018       .   A
O963       C972 0.024       .   A
C964       C965 0.025       .   A
C964       H968 0.018       .   A
C964       H969 0.018       .   A
C964       C972 0.025       .   A
C965       H967 0.018       .   A
C965       H970 0.018       .   A
C966       C972 0.025       .   A
C966       N974 0.021       .   A
C966       C978 0.022       .   A
H971       C972 0.018       .   A
N974       C975 0.021       .   A
C975       C976 0.022       .   A
C975       N982 0.021       .   A
C976       N977 0.021       .   A
C976       N983 0.021       .   A
N977       C978 0.021       .   A
C978       H979 0.018       .   A
C980       C981 0.022       .   A
C980       N982 0.021       .   A
C980       H984 0.018       .   A
C981       N983 0.021       .   A
C885       C886 0.022       .   A
C885       C890 0.022       .   A
C886       C887 0.021       .   A
C886       H893 0.018       .   A
C887       C888 0.022       .   A
C887       H892 0.018       .   A
C888       C889 0.022       .   A
C888       C891 0.025       .   A
C889       C890 0.022       .   A
C889       C895 0.022       .   A
C890       C894 0.022       .   A
C891       O902 0.024       .   A
C891       C904 0.025       .   A
C891       H912 0.018       .   A
C894       C897 0.021       .   A
C894       H901 0.018       .   A
C895       C896 0.022       .   A
C895      Br898 0.031       .   A
C896       C897 0.021       .   A
C896       H899 0.018       .   A
C897       H900 0.018       .   A
O902       C911 0.024       .   A
C903       C904 0.025       .   A
C903       H907 0.018       .   A
C903       H908 0.018       .   A
C903       C911 0.025       .   A
C904       H906 0.018       .   A
C904       H909 0.018       .   A
C905       C911 0.026       .   A
C905       O913 0.024       .   A
C905       C915 0.025       .   A
C905       H923 0.018       .   A
H910       C911 0.018       .   A
O913       C922 0.024       .   A
C914       C915 0.025       .   A
C914       H918 0.018       .   A
C914       H919 0.018       .   A
C914       C922 0.025       .   A
C915       H917 0.018       .   A
C915       H920 0.018       .   A
C916       C922 0.025       .   A
C916       N924 0.021       .   A
C916       C928 0.022       .   A
H921       C922 0.018       .   A
N924       C925 0.021       .   A
C925       C926 0.022       .   A
C925       N932 0.021       .   A
C926       N927 0.021       .   A
C926       N933 0.021       .   A
N927       C928 0.021       .   A
C928       H929 0.018       .   A
C930       C931 0.022       .   A
C930       N932 0.021       .   A
C930       H934 0.018       .   A
C931       N933 0.021       .   A
C835       C836 0.022       .   A
C835       C840 0.022       .   A
C836       C837 0.021       .   A
C836       H843 0.018       .   A
C837       C838 0.022       .   A
C837       H842 0.018       .   A
C838       C839 0.022       .   A
C838       C841 0.025       .   A
C839       C840 0.022       .   A
C839       C845 0.022       .   A
C840       C844 0.022       .   A
C841       O852 0.024       .   A
C841       C854 0.025       .   A
C841       H862 0.018       .   A
C844       C847 0.021       .   A
C844       H851 0.018       .   A
C845       C846 0.022       .   A
C845      Br848 0.031       .   A
C846       C847 0.021       .   A
C846       H849 0.018       .   A
C847       H850 0.018       .   A
O852       C861 0.024       .   A
C853       C854 0.025       .   A
C853       H857 0.018       .   A
C853       H858 0.018       .   A
C853       C861 0.025       .   A
C854       H856 0.018       .   A
C854       H859 0.018       .   A
C855       C861 0.026       .   A
C855       O863 0.024       .   A
C855       C865 0.025       .   A
C855       H873 0.018       .   A
H860       C861 0.018       .   A
O863       C872 0.024       .   A
C864       C865 0.025       .   A
C864       H868 0.018       .   A
C864       H869 0.018       .   A
C864       C872 0.025       .   A
C865       H867 0.018       .   A
C865       H870 0.018       .   A
C866       C872 0.025       .   A
C866       N874 0.021       .   A
C866       C878 0.022       .   A
H871       C872 0.018       .   A
N874       C875 0.021       .   A
C875       C876 0.022       .   A
C875       N882 0.021       .   A
C876       N877 0.021       .   A
C876       N883 0.021       .   A
N877       C878 0.021       .   A
C878       H879 0.018       .   A
C880       C881 0.022       .   A
C880       N882 0.021       .   A
C880       H884 0.018       .   A
C881       N883 0.021       .   A
C785       C786 0.022       .   A
C785       C790 0.022       .   A
C786       C787 0.021       .   A
C786       H793 0.018       .   A
C787       C788 0.022       .   A
C787       H792 0.018       .   A
C788       C789 0.022       .   A
C788       C791 0.025       .   A
C789       C790 0.022       .   A
C789       C795 0.022       .   A
C790       C794 0.022       .   A
C791       O802 0.024       .   A
C791       C804 0.025       .   A
C791       H812 0.018       .   A
C794       C797 0.021       .   A
C794       H801 0.018       .   A
C795       C796 0.022       .   A
C795      Br798 0.031       .   A
C796       C797 0.021       .   A
C796       H799 0.018       .   A
C797       H800 0.018       .   A
O802       C811 0.024       .   A
C803       C804 0.025       .   A
C803       H807 0.018       .   A
C803       H808 0.018       .   A
C803       C811 0.025       .   A
C804       H806 0.018       .   A
C804       H809 0.018       .   A
C805       C811 0.026       .   A
C805       O813 0.024       .   A
C805       C815 0.025       .   A
C805       H823 0.018       .   A
H810       C811 0.018       .   A
O813       C822 0.024       .   A
C814       C815 0.025       .   A
C814       H818 0.018       .   A
C814       H819 0.018       .   A
C814       C822 0.025       .   A
C815       H817 0.018       .   A
C815       H820 0.018       .   A
C816       C822 0.025       .   A
C816       N824 0.021       .   A
C816       C828 0.022       .   A
H821       C822 0.018       .   A
N824       C825 0.021       .   A
C825       C826 0.022       .   A
C825       N832 0.021       .   A
C826       N827 0.021       .   A
C826       N833 0.021       .   A
N827       C828 0.021       .   A
C828       H829 0.018       .   A
C830       C831 0.022       .   A
C830       N832 0.021       .   A
C830       H834 0.018       .   A
C831       N833 0.021       .   A
C735       C736 0.022       .   A
C735       C740 0.022       .   A
C736       C737 0.021       .   A
C736       H743 0.018       .   A
C737       C738 0.022       .   A
C737       H742 0.018       .   A
C738       C739 0.022       .   A
C738       C741 0.025       .   A
C739       C740 0.022       .   A
C739       C745 0.022       .   A
C740       C744 0.022       .   A
C741       O752 0.024       .   A
C741       C754 0.025       .   A
C741       H762 0.018       .   A
C744       C747 0.021       .   A
C744       H751 0.018       .   A
C745       C746 0.022       .   A
C745      Br748 0.031       .   A
C746       C747 0.021       .   A
C746       H749 0.018       .   A
C747       H750 0.018       .   A
O752       C761 0.024       .   A
C753       C754 0.025       .   A
C753       H757 0.018       .   A
C753       H758 0.018       .   A
C753       C761 0.025       .   A
C754       H756 0.018       .   A
C754       H759 0.018       .   A
C755       C761 0.026       .   A
C755       O763 0.024       .   A
C755       C765 0.025       .   A
C755       H773 0.018       .   A
H760       C761 0.018       .   A
O763       C772 0.024       .   A
C764       C765 0.025       .   A
C764       H768 0.018       .   A
C764       H769 0.018       .   A
C764       C772 0.025       .   A
C765       H767 0.018       .   A
C765       H770 0.018       .   A
C766       C772 0.025       .   A
C766       N774 0.021       .   A
C766       C778 0.022       .   A
H771       C772 0.018       .   A
N774       C775 0.021       .   A
C775       C776 0.022       .   A
C775       N782 0.021       .   A
C776       N777 0.021       .   A
C776       N783 0.021       .   A
N777       C778 0.021       .   A
C778       H779 0.018       .   A
C780       C781 0.022       .   A
C780       N782 0.021       .   A
C780       H784 0.018       .   A
C781       N783 0.021       .   A
C685       C686 0.022       .   A
C685       C690 0.022       .   A
C686       C687 0.021       .   A
C686       H693 0.018       .   A
C687       C688 0.022       .   A
C687       H692 0.018       .   A
C688       C689 0.022       .   A
C688       C691 0.025       .   A
C689       C690 0.022       .   A
C689       C695 0.022       .   A
C690       C694 0.022       .   A
C691       O702 0.024       .   A
C691       C704 0.025       .   A
C691       H712 0.018       .   A
C694       C697 0.021       .   A
C694       H701 0.018       .   A
C695       C696 0.022       .   A
C695      Br698 0.031       .   A
C696       C697 0.021       .   A
C696       H699 0.018       .   A
C697       H700 0.018       .   A
O702       C711 0.024       .   A
C703       C704 0.025       .   A
C703       H707 0.018       .   A
C703       H708 0.018       .   A
C703       C711 0.025       .   A
C704       H706 0.018       .   A
C704       H709 0.018       .   A
C705       C711 0.026       .   A
C705       O713 0.024       .   A
C705       C715 0.025       .   A
C705       H723 0.018       .   A
H710       C711 0.018       .   A
O713       C722 0.024       .   A
C714       C715 0.025       .   A
C714       H718 0.018       .   A
C714       H719 0.018       .   A
C714       C722 0.025       .   A
C715       H717 0.018       .   A
C715       H720 0.018       .   A
C716       C722 0.025       .   A
C716       N724 0.021       .   A
C716       C728 0.022       .   A
H721       C722 0.018       .   A
N724       C725 0.021       .   A
C725       C726 0.022       .   A
C725       N732 0.021       .   A
C726       N727 0.021       .   A
C726       N733 0.021       .   A
N727       C728 0.021       .   A
C728       H729 0.018       .   A
C730       C731 0.022       .   A
C730       N732 0.021       .   A
C730       H734 0.018       .   A
C731       N733 0.021       .   A
C635       C636 0.022       .   A
C635       C640 0.022       .   A
C636       C637 0.021       .   A
C636       H643 0.018       .   A
C637       C638 0.022       .   A
C637       H642 0.018       .   A
C638       C639 0.022       .   A
C638       C641 0.025       .   A
C639       C640 0.022       .   A
C639       C645 0.022       .   A
C640       C644 0.022       .   A
C641       O652 0.024       .   A
C641       C654 0.025       .   A
C641       H662 0.018       .   A
C644       C647 0.021       .   A
C644       H651 0.018       .   A
C645       C646 0.022       .   A
C645      Br648 0.031       .   A
C646       C647 0.021       .   A
C646       H649 0.018       .   A
C647       H650 0.018       .   A
O652       C661 0.024       .   A
C653       C654 0.025       .   A
C653       H657 0.018       .   A
C653       H658 0.018       .   A
C653       C661 0.025       .   A
C654       H656 0.018       .   A
C654       H659 0.018       .   A
C655       C661 0.026       .   A
C655       O663 0.024       .   A
C655       C665 0.025       .   A
C655       H673 0.018       .   A
H660       C661 0.018       .   A
O663       C672 0.024       .   A
C664       C665 0.025       .   A
C664       H668 0.018       .   A
C664       H669 0.018       .   A
C664       C672 0.025       .   A
C665       H667 0.018       .   A
C665       H670 0.018       .   A
C666       C672 0.025       .   A
C666       N674 0.021       .   A
C666       C678 0.022       .   A
H671       C672 0.018       .   A
N674       C675 0.021       .   A
C675       C676 0.022       .   A
C675       N682 0.021       .   A
C676       N677 0.021       .   A
C676       N683 0.021       .   A
N677       C678 0.021       .   A
C678       H679 0.018       .   A
C680       C681 0.022       .   A
C680       N682 0.021       .   A
C680       H684 0.018       .   A
C681       N683 0.021       .   A
C585       C586 0.022       .   A
C585       C590 0.022       .   A
C586       C587 0.021       .   A
C586       H593 0.018       .   A
C587       C588 0.022       .   A
C587       H592 0.018       .   A
C588       C589 0.022       .   A
C588       C591 0.025       .   A
C589       C590 0.022       .   A
C589       C595 0.022       .   A
C590       C594 0.022       .   A
C591       O602 0.024       .   A
C591       C604 0.025       .   A
C591       H612 0.018       .   A
C594       C597 0.021       .   A
C594       H601 0.018       .   A
C595       C596 0.022       .   A
C595      Br598 0.031       .   A
C596       C597 0.021       .   A
C596       H599 0.018       .   A
C597       H600 0.018       .   A
O602       C611 0.024       .   A
C603       C604 0.025       .   A
C603       H607 0.018       .   A
C603       H608 0.018       .   A
C603       C611 0.025       .   A
C604       H606 0.018       .   A
C604       H609 0.018       .   A
C605       C611 0.026       .   A
C605       O613 0.024       .   A
C605       C615 0.025       .   A
C605       H623 0.018       .   A
H610       C611 0.018       .   A
O613       C622 0.024       .   A
C614       C615 0.025       .   A
C614       H618 0.018       .   A
C614       H619 0.018       .   A
C614       C622 0.025       .   A
C615       H617 0.018       .   A
C615       H620 0.018       .   A
C616       C622 0.025       .   A
C616       N624 0.021       .   A
C616       C628 0.022       .   A
H621       C622 0.018       .   A
N624       C625 0.021       .   A
C625       C626 0.022       .   A
C625       N632 0.021       .   A
C626       N627 0.021       .   A
C626       N633 0.021       .   A
N627       C628 0.021       .   A
C628       H629 0.018       .   A
C630       C631 0.022       .   A
C630       N632 0.021       .   A
C630       H634 0.018       .   A
C631       N633 0.021       .   A
C535       C536 0.022       .   A
C535       C540 0.022       .   A
C536       C537 0.021       .   A
C536       H543 0.018       .   A
C537       C538 0.022       .   A
C537       H542 0.018       .   A
C538       C539 0.022       .   A
C538       C541 0.025       .   A
C539       C540 0.022       .   A
C539       C545 0.022       .   A
C540       C544 0.022       .   A
C541       O552 0.024       .   A
C541       C554 0.025       .   A
C541       H562 0.018       .   A
C544       C547 0.021       .   A
C544       H551 0.018       .   A
C545       C546 0.022       .   A
C545      Br548 0.031       .   A
C546       C547 0.021       .   A
C546       H549 0.018       .   A
C547       H550 0.018       .   A
O552       C561 0.024       .   A
C553       C554 0.025       .   A
C553       H557 0.018       .   A
C553       H558 0.018       .   A
C553       C561 0.025       .   A
C554       H556 0.018       .   A
C554       H559 0.018       .   A
C555       C561 0.026       .   A
C555       O563 0.024       .   A
C555       C565 0.025       .   A
C555       H573 0.018       .   A
H560       C561 0.018       .   A
O563       C572 0.024       .   A
C564       C565 0.025       .   A
C564       H568 0.018       .   A
C564       H569 0.018       .   A
C564       C572 0.025       .   A
C565       H567 0.018       .   A
C565       H570 0.018       .   A
C566       C572 0.025       .   A
C566       N574 0.021       .   A
C566       C578 0.022       .   A
H571       C572 0.018       .   A
N574       C575 0.021       .   A
C575       C576 0.022       .   A
C575       N582 0.021       .   A
C576       N577 0.021       .   A
C576       N583 0.021       .   A
N577       C578 0.021       .   A
C578       H579 0.018       .   A
C580       C581 0.022       .   A
C580       N582 0.021       .   A
C580       H584 0.018       .   A
C581       N583 0.021       .   A
C485       C486 0.022       .   A
C485       C490 0.022       .   A
C486       C487 0.021       .   A
C486       H493 0.018       .   A
C487       C488 0.022       .   A
C487       H492 0.018       .   A
C488       C489 0.022       .   A
C488       C491 0.025       .   A
C489       C490 0.022       .   A
C489       C495 0.022       .   A
C490       C494 0.022       .   A
C491       O502 0.024       .   A
C491       C504 0.025       .   A
C491       H512 0.018       .   A
C494       C497 0.021       .   A
C494       H501 0.018       .   A
C495       C496 0.022       .   A
C495      Br498 0.031       .   A
C496       C497 0.021       .   A
C496       H499 0.018       .   A
C497       H500 0.018       .   A
O502       C511 0.024       .   A
C503       C504 0.025       .   A
C503       H507 0.018       .   A
C503       H508 0.018       .   A
C503       C511 0.025       .   A
C504       H506 0.018       .   A
C504       H509 0.018       .   A
C505       C511 0.026       .   A
C505       O513 0.024       .   A
C505       C515 0.025       .   A
C505       H523 0.018       .   A
H510       C511 0.018       .   A
O513       C522 0.024       .   A
C514       C515 0.025       .   A
C514       H518 0.018       .   A
C514       H519 0.018       .   A
C514       C522 0.025       .   A
C515       H517 0.018       .   A
C515       H520 0.018       .   A
C516       C522 0.025       .   A
C516       N524 0.021       .   A
C516       C528 0.022       .   A
H521       C522 0.018       .   A
N524       C525 0.021       .   A
C525       C526 0.022       .   A
C525       N532 0.021       .   A
C526       N527 0.021       .   A
C526       N533 0.021       .   A
N527       C528 0.021       .   A
C528       H529 0.018       .   A
C530       C531 0.022       .   A
C530       N532 0.021       .   A
C530       H534 0.018       .   A
C531       N533 0.021       .   A
C435       C436 0.022       .   A
C435       C440 0.022       .   A
C436       C437 0.021       .   A
C436       H443 0.018       .   A
C437       C438 0.022       .   A
C437       H442 0.018       .   A
C438       C439 0.022       .   A
C438       C441 0.025       .   A
C439       C440 0.022       .   A
C439       C445 0.022       .   A
C440       C444 0.022       .   A
C441       O452 0.024       .   A
C441       C454 0.025       .   A
C441       H462 0.018       .   A
C444       C447 0.021       .   A
C444       H451 0.018       .   A
C445       C446 0.022       .   A
C445      Br448 0.031       .   A
C446       C447 0.021       .   A
C446       H449 0.018       .   A
C447       H450 0.018       .   A
O452       C461 0.024       .   A
C453       C454 0.025       .   A
C453       H457 0.018       .   A
C453       H458 0.018       .   A
C453       C461 0.025       .   A
C454       H456 0.018       .   A
C454       H459 0.018       .   A
C455       C461 0.026       .   A
C455       O463 0.024       .   A
C455       C465 0.025       .   A
C455       H473 0.018       .   A
H460       C461 0.018       .   A
O463       C472 0.024       .   A
C464       C465 0.025       .   A
C464       H468 0.018       .   A
C464       H469 0.018       .   A
C464       C472 0.025       .   A
C465       H467 0.018       .   A
C465       H470 0.018       .   A
C466       C472 0.025       .   A
C466       N474 0.021       .   A
C466       C478 0.022       .   A
H471       C472 0.018       .   A
N474       C475 0.021       .   A
C475       C476 0.022       .   A
C475       N482 0.021       .   A
C476       N477 0.021       .   A
C476       N483 0.021       .   A
N477       C478 0.021       .   A
C478       H479 0.018       .   A
C480       C481 0.022       .   A
C480       N482 0.021       .   A
C480       H484 0.018       .   A
C481       N483 0.021       .   A
C385       C386 0.022       .   A
C385       C390 0.022       .   A
C386       C387 0.021       .   A
C386       H393 0.018       .   A
C387       C388 0.022       .   A
C387       H392 0.018       .   A
C388       C389 0.022       .   A
C388       C391 0.025       .   A
C389       C390 0.022       .   A
C389       C395 0.022       .   A
C390       C394 0.022       .   A
C391       O402 0.024       .   A
C391       C404 0.025       .   A
C391       H412 0.018       .   A
C394       C397 0.021       .   A
C394       H401 0.018       .   A
C395       C396 0.022       .   A
C395      Br398 0.031       .   A
C396       C397 0.021       .   A
C396       H399 0.018       .   A
C397       H400 0.018       .   A
O402       C411 0.024       .   A
C403       C404 0.025       .   A
C403       H407 0.018       .   A
C403       H408 0.018       .   A
C403       C411 0.025       .   A
C404       H406 0.018       .   A
C404       H409 0.018       .   A
C405       C411 0.026       .   A
C405       O413 0.024       .   A
C405       C415 0.025       .   A
C405       H423 0.018       .   A
H410       C411 0.018       .   A
O413       C422 0.024       .   A
C414       C415 0.025       .   A
C414       H418 0.018       .   A
C414       H419 0.018       .   A
C414       C422 0.025       .   A
C415       H417 0.018       .   A
C415       H420 0.018       .   A
C416       C422 0.025       .   A
C416       N424 0.021       .   A
C416       C428 0.022       .   A
H421       C422 0.018       .   A
N424       C425 0.021       .   A
C425       C426 0.022       .   A
C425       N432 0.021       .   A
C426       N427 0.021       .   A
C426       N433 0.021       .   A
N427       C428 0.021       .   A
C428       H429 0.018       .   A
C430       C431 0.022       .   A
C430       N432 0.021       .   A
C430       H434 0.018       .   A
C431       N433 0.021       .   A
C335       C336 0.022       .   A
C335       C340 0.022       .   A
C336       C337 0.021       .   A
C336       H343 0.018       .   A
C337       C338 0.022       .   A
C337       H342 0.018       .   A
C338       C339 0.022       .   A
C338       C341 0.025       .   A
C339       C340 0.022       .   A
C339       C345 0.022       .   A
C340       C344 0.022       .   A
C341       O352 0.024       .   A
C341       C354 0.025       .   A
C341       H362 0.018       .   A
C344       C347 0.021       .   A
C344       H351 0.018       .   A
C345       C346 0.022       .   A
C345      Br348 0.031       .   A
C346       C347 0.021       .   A
C346       H349 0.018       .   A
C347       H350 0.018       .   A
O352       C361 0.024       .   A
C353       C354 0.025       .   A
C353       H357 0.018       .   A
C353       H358 0.018       .   A
C353       C361 0.025       .   A
C354       H356 0.018       .   A
C354       H359 0.018       .   A
C355       C361 0.026       .   A
C355       O363 0.024       .   A
C355       C365 0.025       .   A
C355       H373 0.018       .   A
H360       C361 0.018       .   A
O363       C372 0.024       .   A
C364       C365 0.025       .   A
C364       H368 0.018       .   A
C364       H369 0.018       .   A
C364       C372 0.025       .   A
C365       H367 0.018       .   A
C365       H370 0.018       .   A
C366       C372 0.025       .   A
C366       N374 0.021       .   A
C366       C378 0.022       .   A
H371       C372 0.018       .   A
N374       C375 0.021       .   A
C375       C376 0.022       .   A
C375       N382 0.021       .   A
C376       N377 0.021       .   A
C376       N383 0.021       .   A
N377       C378 0.021       .   A
C378       H379 0.018       .   A
C380       C381 0.022       .   A
C380       N382 0.021       .   A
C380       H384 0.018       .   A
C381       N383 0.021       .   A
C285       C286 0.022       .   A
C285       C290 0.022       .   A
C286       C287 0.021       .   A
C286       H293 0.018       .   A
C287       C288 0.022       .   A
C287       H292 0.018       .   A
C288       C289 0.022       .   A
C288       C291 0.025       .   A
C289       C290 0.022       .   A
C289       C295 0.022       .   A
C290       C294 0.022       .   A
C291       O302 0.024       .   A
C291       C304 0.025       .   A
C291       H312 0.018       .   A
C294       C297 0.021       .   A
C294       H301 0.018       .   A
C295       C296 0.022       .   A
C295      Br298 0.031       .   A
C296       C297 0.021       .   A
C296       H299 0.018       .   A
C297       H300 0.018       .   A
O302       C311 0.024       .   A
C303       C304 0.025       .   A
C303       H307 0.018       .   A
C303       H308 0.018       .   A
C303       C311 0.025       .   A
C304       H306 0.018       .   A
C304       H309 0.018       .   A
C305       C311 0.026       .   A
C305       O313 0.024       .   A
C305       C315 0.025       .   A
C305       H323 0.018       .   A
H310       C311 0.018       .   A
O313       C322 0.024       .   A
C314       C315 0.025       .   A
C314       H318 0.018       .   A
C314       H319 0.018       .   A
C314       C322 0.025       .   A
C315       H317 0.018       .   A
C315       H320 0.018       .   A
C316       C322 0.025       .   A
C316       N324 0.021       .   A
C316       C328 0.022       .   A
H321       C322 0.018       .   A
N324       C325 0.021       .   A
C325       C326 0.022       .   A
C325       N332 0.021       .   A
C326       N327 0.021       .   A
C326       N333 0.021       .   A
N327       C328 0.021       .   A
C328       H329 0.018       .   A
C330       C331 0.022       .   A
C330       N332 0.021       .   A
C330       H334 0.018       .   A
C331       N333 0.021       .   A
C235       C236 0.022       .   A
C235       C240 0.022       .   A
C236       C237 0.021       .   A
C236       H243 0.018       .   A
C237       C238 0.022       .   A
C237       H242 0.018       .   A
C238       C239 0.022       .   A
C238       C241 0.025       .   A
C239       C240 0.022       .   A
C239       C245 0.022       .   A
C240       C244 0.022       .   A
C241       O252 0.024       .   A
C241       C254 0.025       .   A
C241       H262 0.018       .   A
C244       C247 0.021       .   A
C244       H251 0.018       .   A
C245       C246 0.022       .   A
C245      Br248 0.031       .   A
C246       C247 0.021       .   A
C246       H249 0.018       .   A
C247       H250 0.018       .   A
O252       C261 0.024       .   A
C253       C254 0.025       .   A
C253       H257 0.018       .   A
C253       H258 0.018       .   A
C253       C261 0.025       .   A
C254       H256 0.018       .   A
C254       H259 0.018       .   A
C255       C261 0.026       .   A
C255       O263 0.024       .   A
C255       C265 0.025       .   A
C255       H273 0.018       .   A
H260       C261 0.018       .   A
O263       C272 0.024       .   A
C264       C265 0.025       .   A
C264       H268 0.018       .   A
C264       H269 0.018       .   A
C264       C272 0.025       .   A
C265       H267 0.018       .   A
C265       H270 0.018       .   A
C266       C272 0.025       .   A
C266       N274 0.021       .   A
C266       C278 0.022       .   A
H271       C272 0.018       .   A
N274       C275 0.021       .   A
C275       C276 0.022       .   A
C275       N282 0.021       .   A
C276       N277 0.021       .   A
C276       N283 0.021       .   A
N277       C278 0.021       .   A
C278       H279 0.018       .   A
C280       C281 0.022       .   A
C280       N282 0.021       .   A
C280       H284 0.018       .   A
C281       N283 0.021       .   A
C185       C186 0.022       .   A
C185       C190 0.022       .   A
C186       C187 0.021       .   A
C186       H193 0.018       .   A
C187       C188 0.022       .   A
C187       H192 0.018       .   A
C188       C189 0.022       .   A
C188       C191 0.025       .   A
C189       C190 0.022       .   A
C189       C195 0.022       .   A
C190       C194 0.022       .   A
C191       O202 0.024       .   A
C191       C204 0.025       .   A
C191       H212 0.018       .   A
C194       C197 0.021       .   A
C194       H201 0.018       .   A
C195       C196 0.022       .   A
C195      Br198 0.031       .   A
C196       C197 0.021       .   A
C196       H199 0.018       .   A
C197       H200 0.018       .   A
O202       C211 0.024       .   A
C203       C204 0.025       .   A
C203       H207 0.018       .   A
C203       H208 0.018       .   A
C203       C211 0.025       .   A
C204       H206 0.018       .   A
C204       H209 0.018       .   A
C205       C211 0.026       .   A
C205       O213 0.024       .   A
C205       C215 0.025       .   A
C205       H223 0.018       .   A
H210       C211 0.018       .   A
O213       C222 0.024       .   A
C214       C215 0.025       .   A
C214       H218 0.018       .   A
C214       H219 0.018       .   A
C214       C222 0.025       .   A
C215       H217 0.018       .   A
C215       H220 0.018       .   A
C216       C222 0.025       .   A
C216       N224 0.021       .   A
C216       C228 0.022       .   A
H221       C222 0.018       .   A
N224       C225 0.021       .   A
C225       C226 0.022       .   A
C225       N232 0.021       .   A
C226       N227 0.021       .   A
C226       N233 0.021       .   A
N227       C228 0.021       .   A
C228       H229 0.018       .   A
C230       C231 0.022       .   A
C230       N232 0.021       .   A
C230       H234 0.018       .   A
C231       N233 0.021       .   A
