data_pcu_v1-6c_Zn_1_Ch_1-25_fer_tobacco
_audit_creation_date              2021-02-03
_audit_creation_method            'tobacco_3.0'
_symmetry_space_group_name_H-M    'P1'
_symmetry_Int_Tables_number       1
_symmetry_cell_setting            triclinic
loop_
_symmetry_equiv_pos_as_xyz
  x,y,z
_cell_length_a                    35.10685161951557
_cell_length_b                    35.10685161951557
_cell_length_c                    35.10685161951557
_cell_angle_alpha                 90.0
_cell_angle_beta                  90.0
_cell_angle_gamma                 90.0
loop_
_atom_site_label
_atom_site_type_symbol
_atom_site_fract_x
_atom_site_fract_y
_atom_site_fract_z
_atom_site_charge
Zn1       Zn   -0.0319367858   -0.0319367858    0.0319367858          1.4972
Zn2       Zn    0.0319367858    0.0319367858    0.0319367858          1.4936
Zn3       Zn    0.0319367858   -0.0319367858   -0.0319367858          1.4911
Zn4       Zn   -0.0319367858    0.0319367858   -0.0319367858          1.4948
O5         O    0.0000000000    0.0000000000    0.0000000000         -1.8372
O6         O   -0.0234712018   -0.0234712018    0.0853565575         -0.7435
O7         O    0.0853565575    0.0234712018    0.0234712018         -0.7417
O8         O    0.0234712018   -0.0853565575   -0.0234712018         -0.7368
O9         O    0.0234712018    0.0234712018    0.0853565575         -0.7436
O10        O   -0.0234712018   -0.0853565575    0.0234712018         -0.7396
O11        O    0.0853565575   -0.0234712018   -0.0234712018         -0.7455
O12        O   -0.0234712018    0.0234712018   -0.0853565575         -0.7394
O13        O    0.0234712018    0.0853565575    0.0234712018         -0.7469
O14        O    0.0234712018   -0.0234712018   -0.0853565575         -0.7408
O15        O   -0.0234712018    0.0853565575   -0.0234712018         -0.7455
O16        O   -0.0853565575    0.0234712018   -0.0234712018         -0.7446
O17        O   -0.0853565575   -0.0234712018    0.0234712018         -0.7425
C18        C   -0.0000000000   -0.0000000000    0.1020541528          0.7754
C19        C    0.1020541528   -0.0000000000   -0.0000000000          0.7803
C20        C   -0.0000000000   -0.1020541528    0.0000000000          0.7699
C21        C    0.0000000000    0.0000000000   -0.1020541528          0.7737
C22        C    0.0000000000    0.1020541528   -0.0000000000           0.785
C23        C   -0.1020541528    0.0000000000    0.0000000000          0.7755
Zn24      Zn    0.9680632142    0.0319367858    0.4680632142          1.4972
Zn25      Zn    1.0319367858   -0.0319367858    0.4680632142          1.4936
Zn26      Zn    1.0319367858    0.0319367858    0.5319367858          1.4911
Zn27      Zn    0.9680632142   -0.0319367858    0.5319367858          1.4948
O28        O    1.0000000000    0.0000000000    0.5000000000         -1.8372
O29        O    0.9765287982    0.0234712018    0.4146434425         -0.7435
O30        O    1.0853565575   -0.0234712018    0.4765287982         -0.7417
O31        O    1.0234712018    0.0853565575    0.5234712018         -0.7368
O32        O    1.0234712018   -0.0234712018    0.4146434425         -0.7436
O33        O    0.9765287982    0.0853565575    0.4765287982         -0.7396
O34        O    1.0853565575    0.0234712018    0.5234712018         -0.7455
O35        O    0.9765287982   -0.0234712018    0.5853565575         -0.7394
O36        O    1.0234712018   -0.0853565575    0.4765287982         -0.7469
O37        O    1.0234712018    0.0234712018    0.5853565575         -0.7408
O38        O    0.9765287982   -0.0853565575    0.5234712018         -0.7455
O39        O    0.9146434425   -0.0234712018    0.5234712018         -0.7446
O40        O    0.9146434425    0.0234712018    0.4765287982         -0.7425
C41        C    1.0000000000    0.0000000000    0.3979458472          0.7754
C42        C    1.1020541528    0.0000000000    0.5000000000          0.7803
C43        C    1.0000000000    0.1020541528    0.5000000000          0.7699
C44        C    1.0000000000    0.0000000000    0.6020541528          0.7737
C45        C    1.0000000000   -0.1020541528    0.5000000000           0.785
C46        C    0.8979458472    0.0000000000    0.5000000000          0.7755
Zn47      Zn    0.9680632142    0.5319367858   -0.0319367858          1.4972
Zn48      Zn    1.0319367858    0.5319367858    0.0319367858          1.4936
Zn49      Zn    0.9680632142    0.4680632142    0.0319367858          1.4911
Zn50      Zn    1.0319367858    0.4680632142   -0.0319367858          1.4948
O51        O    1.0000000000    0.5000000000    0.0000000000         -1.8372
O52        O    0.9765287982    0.5853565575   -0.0234712018         -0.7435
O53        O    1.0234712018    0.5234712018    0.0853565575         -0.7417
O54        O    0.9146434425    0.4765287982    0.0234712018         -0.7368
O55        O    1.0234712018    0.5853565575    0.0234712018         -0.7436
O56        O    0.9146434425    0.5234712018   -0.0234712018         -0.7396
O57        O    0.9765287982    0.4765287982    0.0853565575         -0.7455
O58        O    1.0234712018    0.4146434425   -0.0234712018         -0.7394
O59        O    1.0853565575    0.5234712018    0.0234712018         -0.7469
O60        O    0.9765287982    0.4146434425    0.0234712018         -0.7408
O61        O    1.0853565575    0.4765287982   -0.0234712018         -0.7455
O62        O    1.0234712018    0.4765287982   -0.0853565575         -0.7446
O63        O    0.9765287982    0.5234712018   -0.0853565575         -0.7425
C64        C    1.0000000000    0.6020541528    0.0000000000          0.7754
C65        C    1.0000000000    0.5000000000    0.1020541528          0.7803
C66        C    0.8979458472    0.5000000000    0.0000000000          0.7699
C67        C    1.0000000000    0.3979458472    0.0000000000          0.7737
C68        C    1.1020541528    0.5000000000    0.0000000000           0.785
C69        C    1.0000000000    0.5000000000   -0.1020541528          0.7755
Zn70      Zn    0.9680632142    0.4680632142    0.5319367858          1.4972
Zn71      Zn    1.0319367858    0.4680632142    0.4680632142          1.4936
Zn72      Zn    0.9680632142    0.5319367858    0.4680632142          1.4911
Zn73      Zn    1.0319367858    0.5319367858    0.5319367858          1.4948
O74        O    1.0000000000    0.5000000000    0.5000000000         -1.8372
O75        O    0.9765287982    0.4146434425    0.5234712018         -0.7435
O76        O    1.0234712018    0.4765287982    0.4146434425         -0.7417
O77        O    0.9146434425    0.5234712018    0.4765287982         -0.7368
O78        O    1.0234712018    0.4146434425    0.4765287982         -0.7436
O79        O    0.9146434425    0.4765287982    0.5234712018         -0.7396
O80        O    0.9765287982    0.5234712018    0.4146434425         -0.7455
O81        O    1.0234712018    0.5853565575    0.5234712018         -0.7394
O82        O    1.0853565575    0.4765287982    0.4765287982         -0.7469
O83        O    0.9765287982    0.5853565575    0.4765287982         -0.7408
O84        O    1.0853565575    0.5234712018    0.5234712018         -0.7455
O85        O    1.0234712018    0.5234712018    0.5853565575         -0.7446
O86        O    0.9765287982    0.4765287982    0.5853565575         -0.7425
C87        C    1.0000000000    0.3979458472    0.5000000000          0.7754
C88        C    1.0000000000    0.5000000000    0.3979458472          0.7803
C89        C    0.8979458472    0.5000000000    0.5000000000          0.7699
C90        C    1.0000000000    0.6020541528    0.5000000000          0.7737
C91        C    1.1020541528    0.5000000000    0.5000000000           0.785
C92        C    1.0000000000    0.5000000000    0.6020541528          0.7755
Zn93      Zn    0.4680632142    0.9680632142   -0.0319367858          1.4972
Zn94      Zn    0.4680632142    1.0319367858    0.0319367858          1.4936
Zn95      Zn    0.5319367858    0.9680632142    0.0319367858          1.4911
Zn96      Zn    0.5319367858    1.0319367858   -0.0319367858          1.4948
O97        O    0.5000000000    1.0000000000    0.0000000000         -1.8372
O98        O    0.4146434425    0.9765287982   -0.0234712018         -0.7435
O99        O    0.4765287982    1.0234712018    0.0853565575         -0.7417
O100       O    0.5234712018    0.9146434425    0.0234712018         -0.7368
O101       O    0.4146434425    1.0234712018    0.0234712018         -0.7436
O102       O    0.4765287982    0.9146434425   -0.0234712018         -0.7396
O103       O    0.5234712018    0.9765287982    0.0853565575         -0.7455
O104       O    0.5853565575    1.0234712018   -0.0234712018         -0.7394
O105       O    0.4765287982    1.0853565575    0.0234712018         -0.7469
O106       O    0.5853565575    0.9765287982    0.0234712018         -0.7408
O107       O    0.5234712018    1.0853565575   -0.0234712018         -0.7455
O108       O    0.5234712018    1.0234712018   -0.0853565575         -0.7446
O109       O    0.4765287982    0.9765287982   -0.0853565575         -0.7425
C110       C    0.3979458472    1.0000000000    0.0000000000          0.7754
C111       C    0.5000000000    1.0000000000    0.1020541528          0.7803
C112       C    0.5000000000    0.8979458472    0.0000000000          0.7699
C113       C    0.6020541528    1.0000000000    0.0000000000          0.7737
C114       C    0.5000000000    1.1020541528    0.0000000000           0.785
C115       C    0.5000000000    1.0000000000   -0.1020541528          0.7755
Zn116     Zn    0.4680632142    1.0319367858    0.5319367858          1.4972
Zn117     Zn    0.4680632142    0.9680632142    0.4680632142          1.4936
Zn118     Zn    0.5319367858    1.0319367858    0.4680632142          1.4911
Zn119     Zn    0.5319367858    0.9680632142    0.5319367858          1.4948
O120       O    0.5000000000    1.0000000000    0.5000000000         -1.8372
O121       O    0.4146434425    1.0234712018    0.5234712018         -0.7435
O122       O    0.4765287982    0.9765287982    0.4146434425         -0.7417
O123       O    0.5234712018    1.0853565575    0.4765287982         -0.7368
O124       O    0.4146434425    0.9765287982    0.4765287982         -0.7436
O125       O    0.4765287982    1.0853565575    0.5234712018         -0.7396
O126       O    0.5234712018    1.0234712018    0.4146434425         -0.7455
O127       O    0.5853565575    0.9765287982    0.5234712018         -0.7394
O128       O    0.4765287982    0.9146434425    0.4765287982         -0.7469
O129       O    0.5853565575    1.0234712018    0.4765287982         -0.7408
O130       O    0.5234712018    0.9146434425    0.5234712018         -0.7455
O131       O    0.5234712018    0.9765287982    0.5853565575         -0.7446
O132       O    0.4765287982    1.0234712018    0.5853565575         -0.7425
C133       C    0.3979458472    1.0000000000    0.5000000000          0.7754
C134       C    0.5000000000    1.0000000000    0.3979458472          0.7803
C135       C    0.5000000000    1.1020541528    0.5000000000          0.7699
C136       C    0.6020541528    1.0000000000    0.5000000000          0.7737
C137       C    0.5000000000    0.8979458472    0.5000000000           0.785
C138       C    0.5000000000    1.0000000000    0.6020541528          0.7755
Zn139     Zn    0.5319367858    0.5319367858   -0.0319367858          1.4972
Zn140     Zn    0.4680632142    0.5319367858    0.0319367858          1.4936
Zn141     Zn    0.4680632142    0.4680632142   -0.0319367858          1.4911
Zn142     Zn    0.5319367858    0.4680632142    0.0319367858          1.4948
O143       O    0.5000000000    0.5000000000    0.0000000000         -1.8372
O144       O    0.5234712018    0.5853565575   -0.0234712018         -0.7435
O145       O    0.4146434425    0.5234712018    0.0234712018         -0.7417
O146       O    0.4765287982    0.4765287982   -0.0853565575         -0.7368
O147       O    0.4765287982    0.5853565575    0.0234712018         -0.7436
O148       O    0.5234712018    0.5234712018   -0.0853565575         -0.7396
O149       O    0.4146434425    0.4765287982   -0.0234712018         -0.7455
O150       O    0.5234712018    0.4146434425    0.0234712018         -0.7394
O151       O    0.4765287982    0.5234712018    0.0853565575         -0.7469
O152       O    0.4765287982    0.4146434425   -0.0234712018         -0.7408
O153       O    0.5234712018    0.4765287982    0.0853565575         -0.7455
O154       O    0.5853565575    0.4765287982    0.0234712018         -0.7446
O155       O    0.5853565575    0.5234712018   -0.0234712018         -0.7425
C156       C    0.5000000000    0.6020541528    0.0000000000          0.7754
C157       C    0.3979458472    0.5000000000    0.0000000000          0.7803
C158       C    0.5000000000    0.5000000000   -0.1020541528          0.7699
C159       C    0.5000000000    0.3979458472    0.0000000000          0.7737
C160       C    0.5000000000    0.5000000000    0.1020541528           0.785
C161       C    0.6020541528    0.5000000000    0.0000000000          0.7755
Zn162     Zn    0.4680632142    0.4680632142    0.4680632142          1.4972
Zn163     Zn    0.5319367858    0.4680632142    0.5319367858          1.4936
Zn164     Zn    0.5319367858    0.5319367858    0.4680632142          1.4911
Zn165     Zn    0.4680632142    0.5319367858    0.5319367858          1.4948
O166       O    0.5000000000    0.5000000000    0.5000000000         -1.8372
O167       O    0.4765287982    0.4146434425    0.4765287982         -0.7435
O168       O    0.5853565575    0.4765287982    0.5234712018         -0.7417
O169       O    0.5234712018    0.5234712018    0.4146434425         -0.7368
O170       O    0.5234712018    0.4146434425    0.5234712018         -0.7436
O171       O    0.4765287982    0.4765287982    0.4146434425         -0.7396
O172       O    0.5853565575    0.5234712018    0.4765287982         -0.7455
O173       O    0.4765287982    0.5853565575    0.5234712018         -0.7394
O174       O    0.5234712018    0.4765287982    0.5853565575         -0.7469
O175       O    0.5234712018    0.5853565575    0.4765287982         -0.7408
O176       O    0.4765287982    0.5234712018    0.5853565575         -0.7455
O177       O    0.4146434425    0.5234712018    0.5234712018         -0.7446
O178       O    0.4146434425    0.4765287982    0.4765287982         -0.7425
C179       C    0.5000000000    0.3979458472    0.5000000000          0.7754
C180       C    0.6020541528    0.5000000000    0.5000000000          0.7803
C181       C    0.5000000000    0.5000000000    0.3979458472          0.7699
C182       C    0.5000000000    0.6020541528    0.5000000000          0.7737
C183       C    0.5000000000    0.5000000000    0.6020541528           0.785
C184       C    0.3979458472    0.5000000000    0.5000000000          0.7755
C944       C    0.5000000000    0.5000000000   -0.1459202339          0.0011
C945       C    0.5000000000    0.5516358623   -0.1352362925          0.0011
C946       C    0.5000000000    1.1145918109    0.0129191386          0.0011
C947       C    0.5000000000    0.5113307905   -0.2081278290          0.0011
C948       C    0.5000000000    0.4815299317   -0.1962027580          0.0011
C949       C    0.5000000000    0.4750411108   -0.1615350139          0.0011
C950       C    0.5000000000    0.5151078339   -0.2391525911          0.0011
C951       C    0.5000000000    0.5719970307   -0.1968368976          0.0011
C952       C    0.5000000000    0.5493715012   -0.1352926977          0.0011
H953       H    0.5000000000    0.4415559926   -0.1535084393          0.0011
H954       H    0.5000000000    0.4549623878   -0.2192608574          0.0011
N955       N    0.5000000000    0.5485937553   -0.1352847214          0.0011
O956       O    0.5000000000    0.4920397682   -0.2566047436          0.0011
C957       C    0.5000000000    0.5321367495   -0.2764256406          0.0011
C958       C    0.5000000000    0.5386076746   -0.2485857400          0.0011
C959       C    0.5000000000    0.5095770058   -0.3131016137          0.0011
H960       H    0.5000000000    0.5712745685   -0.2429448736          0.0011
H961       H    0.5000000000    0.5510077613   -0.3037198582          0.0011
H962       H    0.5000000000    0.5740962590   -0.2710529505          0.0011
H963       H    0.5000000000    0.5474211913   -0.2110443933          0.0011
H964       H    0.5000000000    0.4625636327   -0.2838327631          0.0011
C965       C    0.5000000000    0.5055603728   -0.2807620927          0.0011
H966       H    0.5000000000    0.4840728357   -0.2233160050          0.0011
C967       C    0.5000000000    0.4896546231   -0.3322753663          0.0011
N968       N    0.5000000000    0.5000000000   -0.3540797661          0.0011
N969       N    0.5000000000    0.5268396203   -0.3503936923          0.0011
N970       N    0.5000000000    0.5327554967   -0.3258269822          0.0011
H971       H    0.5000000000    0.4576863964   -0.3421328674          0.0011
H972       H    0.5000000000    0.4762252908   -0.3039975318          0.0011
H973       H    0.5000000000    0.5327662557   -0.3005172079          0.0011
H974       H    0.5000000000   -0.9965947338    0.1986743114          0.0011
H975       H    0.5000000000    0.5470137767   -0.2068452469          0.0011
H976       H    0.5000000000    0.5354166274   -0.1999380802          0.0011
C911       C    0.5000000000    0.5000000000    0.1459202339          0.0011
C912       C    0.4483641377    0.5000000000    0.1352362925          0.0011
C913       C   -0.1145918109    0.5000000000   -0.0129191386          0.0011
C914       C    0.4886692095    0.5000000000    0.2081278290          0.0011
C915       C    0.5184700683    0.5000000000    0.1962027580          0.0011
C916       C    0.5249588892    0.5000000000    0.1615350139          0.0011
C917       C    0.4848921661    0.5000000000    0.2391525911          0.0011
C918       C    0.4280029693    0.5000000000    0.1968368976          0.0011
C919       C    0.4506284988    0.5000000000    0.1352926977          0.0011
H920       H    0.5584440074    0.5000000000    0.1535084393          0.0011
H921       H    0.5450376122    0.5000000000    0.2192608574          0.0011
N922       N    0.4514062447    0.5000000000    0.1352847214          0.0011
O923       O    0.5079602318    0.5000000000    0.2566047436          0.0011
C924       C    0.4678632505    0.5000000000    0.2764256406          0.0011
C925       C    0.4613923254    0.5000000000    0.2485857400          0.0011
C926       C    0.4904229942    0.5000000000    0.3131016137          0.0011
H927       H    0.4287254315    0.5000000000    0.2429448736          0.0011
H928       H    0.4489922387    0.5000000000    0.3037198582          0.0011
H929       H    0.4259037410    0.5000000000    0.2710529505          0.0011
H930       H    0.4525788087    0.5000000000    0.2110443933          0.0011
H931       H    0.5374363673    0.5000000000    0.2838327631          0.0011
C932       C    0.4944396272    0.5000000000    0.2807620927          0.0011
H933       H    0.5159271643    0.5000000000    0.2233160050          0.0011
C934       C    0.5103453769    0.5000000000    0.3322753663          0.0011
N935       N    0.5000000000    0.5000000000    0.3540797661          0.0011
N936       N    0.4731603797    0.5000000000    0.3503936923          0.0011
N937       N    0.4672445033    0.5000000000    0.3258269822          0.0011
H938       H    0.5423136036    0.5000000000    0.3421328674          0.0011
H939       H    0.5237747092    0.5000000000    0.3039975318          0.0011
H940       H    0.4672337443    0.5000000000    0.3005172079          0.0011
H941       H    1.9965947338    0.5000000000   -0.1986743114          0.0011
H942       H    0.4529862233    0.5000000000    0.2068452469          0.0011
H943       H    0.4645833726    0.5000000000    0.1999380802          0.0011
C878       C    0.5000000000    0.6459202339    0.5000000000          0.0011
C879       C    0.5028379971    0.6352362925    0.5515578127          0.0011
C880       C    0.5337790379    0.4870808614    1.1136628314          0.0011
C881       C    0.5006227600    0.7081278290    0.5113136635          0.0011
C882       C    0.4989848528    0.6962027580    0.4815578499          0.0011
C883       C    0.4986282159    0.6615350139    0.4750788372          0.0011
C884       C    0.5008303529    0.7391525911    0.5150849978          0.0011
C885       C    0.5039570824    0.6968368976    0.5718882044          0.0011
C886       C    0.5027135438    0.6352926977    0.5492968742          0.0011
H887       H    0.4967878154    0.6535084393    0.4416443330          0.0011
H888       H    0.4975246543    0.7192608574    0.4550304639          0.0011
N889       N    0.5026707975    0.6352847214    0.5485203039          0.0011
O890       O    0.4995624918    0.7566047436    0.4920518004          0.0011
C891       C    0.5017662918    0.7764256406    0.5320881735          0.0011
C892       C    0.5021219451    0.7485857400    0.5385493176          0.0011
C893       C    0.5005263689    0.8131016137    0.5095625298          0.0011
H894       H    0.5039173746    0.7429448736    0.5711668342          0.0011
H895       H    0.5028034755    0.8037198582    0.5509306611          0.0011
H896       H    0.5040724596    0.7710529505    0.5739842596          0.0011
H897       H    0.5026063514    0.7110443933    0.5473495123          0.0011
H898       H    0.4979424320    0.7838327631    0.4626202192          0.0011
C899       C    0.5003056078    0.7807620927    0.5055519681          0.0011
H900       H    0.4991246153    0.7233160050    0.4840969102          0.0011
C901       C    0.4994314000    0.8322753663    0.4896702605          0.0011
N902       N    0.5000000000    0.8540797661    0.5000000000          0.0011
N903       N    0.5014751523    0.8503936923    0.5267990512          0.0011
N904       N    0.5018002992    0.8258269822    0.5327059854          0.0011
H905       H    0.4976743705    0.8421328674    0.4577503551          0.0011
H906       H    0.4986933005    0.8039975318    0.4762612272          0.0011
H907       H    0.5018008906    0.8005172079    0.5327167282          0.0011
H908       H    0.4177445432    0.3013256886   -0.9943325724          0.0011
H909       H    0.5025839592    0.7068452469    0.5469427135          0.0011
H910       H    0.5019465596    0.6999380802    0.5353630938          0.0011
C845       C    0.5000000000    1.1459202339    0.5000000000          0.0011
C846       C    0.4483641377    1.1352362925    0.5000000000          0.0011
C847       C   -0.1145918109    0.9870808614    0.5000000000          0.0011
C848       C    0.4886692095    1.2081278290    0.5000000000          0.0011
C849       C    0.5184700683    1.1962027580    0.5000000000          0.0011
C850       C    0.5249588892    1.1615350139    0.5000000000          0.0011
C851       C    0.4848921661    1.2391525911    0.5000000000          0.0011
C852       C    0.4280029693    1.1968368976    0.5000000000          0.0011
C853       C    0.4506284988    1.1352926977    0.5000000000          0.0011
H854       H    0.5584440074    1.1535084393    0.5000000000          0.0011
H855       H    0.5450376122    1.2192608574    0.5000000000          0.0011
N856       N    0.4514062447    1.1352847214    0.5000000000          0.0011
O857       O    0.5079602318    1.2566047436    0.5000000000          0.0011
C858       C    0.4678632505    1.2764256406    0.5000000000          0.0011
C859       C    0.4613923254    1.2485857400    0.5000000000          0.0011
C860       C    0.4904229942    1.3131016137    0.5000000000          0.0011
H861       H    0.4287254315    1.2429448736    0.5000000000          0.0011
H862       H    0.4489922387    1.3037198582    0.5000000000          0.0011
H863       H    0.4259037410    1.2710529505    0.5000000000          0.0011
H864       H    0.4525788087    1.2110443933    0.5000000000          0.0011
H865       H    0.5374363673    1.2838327631    0.5000000000          0.0011
C866       C    0.4944396272    1.2807620927    0.5000000000          0.0011
H867       H    0.5159271643    1.2233160050    0.5000000000          0.0011
C868       C    0.5103453769    1.3322753663    0.5000000000          0.0011
N869       N    0.5000000000    1.3540797661    0.5000000000          0.0011
N870       N    0.4731603797    1.3503936923    0.5000000000          0.0011
N871       N    0.4672445033    1.3258269822    0.5000000000          0.0011
H872       H    0.5423136036    1.3421328674    0.5000000000          0.0011
H873       H    0.5237747092    1.3039975318    0.5000000000          0.0011
H874       H    0.4672337443    1.3005172079    0.5000000000          0.0011
H875       H    1.9965947338    0.8013256886    0.5000000000          0.0011
H876       H    0.4529862233    1.2068452469    0.5000000000          0.0011
H877       H    0.4645833726    1.1999380802    0.5000000000          0.0011
C812       C    0.5000000000    0.6459202339    0.0000000000          0.0011
C813       C    0.5420235085    0.6352362925    0.0300047832          0.0011
C814       C    1.0001815214    0.4870808614    0.3571295839          0.0011
C815       C    0.5092214896    0.7081278290    0.0065841432          0.0011
C816       C    0.4849682558    0.6962027580   -0.0107326647          0.0011
C817       C    0.4796873715    0.6615350139   -0.0145032159          0.0011
C818       C    0.5122954117    0.7391525911    0.0087789234          0.0011
C819       C    0.5585943120    0.6968368976    0.0418363362          0.0011
C820       C    0.5401806730    0.6352926977    0.0286889987          0.0011
H821       H    0.4524357273    0.6535084393   -0.0339608886          0.0011
H822       H    0.4633464342    0.7192608574   -0.0261706444          0.0011
N823       N    0.5395477096    0.6352847214    0.0282370629          0.0011
O824       O    0.4935216174    0.7566047436   -0.0046255649          0.0011
C825       C    0.5261542831    0.7764256406    0.0186741570          0.0011
C826       C    0.5314206032    0.7485857400    0.0224343093          0.0011
C827       C    0.5077941835    0.8131016137    0.0055650467          0.0011
H828       H    0.5580063409    0.7429448736    0.0414165248          0.0011
H829       H    0.5415123326    0.8037198582    0.0296398036          0.0011
H830       H    0.5603027552    0.7710529505    0.0430561645          0.0011
H831       H    0.5385934261    0.7110443933    0.0275557045          0.0011
H832       H    0.4695326576    0.7838327631   -0.0217536811          0.0011
C833       C    0.5045252730    0.7807620927    0.0032310447          0.0011
H834       H    0.4870377816    0.7233160050   -0.0092550234          0.0011
C835       C    0.4915804827    0.8322753663   -0.0060115350          0.0011
N836       N    0.5000000000    0.8540797661    0.0000000000          0.0011
N837       N    0.5218432492    0.8503936923    0.0155960790          0.0011
N838       N    0.5266578465    0.8258269822    0.0190337012          0.0011
H839       H    0.4655633508    0.8421328674   -0.0245877660          0.0011
H840       H    0.4806511086    0.8039975318   -0.0138151076          0.0011
H841       H    0.5266666027    0.8005172079    0.0190399531          0.0011
H842       H   -0.7179938254    0.3013256886   -0.8696475369          0.0011
H843       H    0.5382618543    0.7068452469    0.0273189623          0.0011
H844       H    0.5288235903    0.6999380802    0.0205800422          0.0011
C779       C    0.5000000000    1.1459202339    0.0000000000          0.0011
C780       C    0.4945361244    1.1352362925   -0.0513459672          0.0011
C781       C    0.4349666478    0.9870808614   -0.6111413561          0.0011
C782       C    0.4988010265    1.2081278290   -0.0112671769          0.0011
C783       C    0.5019544199    1.1962027580    0.0183663733          0.0011
C784       C    0.5026410378    1.1615350139    0.0248187644          0.0011
C785       C    0.4984013567    1.2391525911   -0.0150230152          0.0011
C786       C    0.4923815967    1.1968368976   -0.0715928234          0.0011
C787       C    0.4947757289    1.1352926977   -0.0490943186          0.0011
H788       H    0.5061842830    1.1535084393    0.0581158897          0.0011
H789       H    0.5047656784    1.2192608574    0.0447847611          0.0011
N790       N    0.4948580265    1.1352847214   -0.0483209392          0.0011
O791       O    0.5008423161    1.2566047436    0.0079155413          0.0011
C792       C    0.4965994331    1.2764256406   -0.0319563266          0.0011
C793       C    0.4959147088    1.2485857400   -0.0383909226          0.0011
C794       C    0.4989866041    1.3131016137   -0.0095232384          0.0011
H795       H    0.4924580445    1.2429448736   -0.0708744173          0.0011
H796       H    0.4946025872    1.3037198582   -0.0507213924          0.0011
H797       H    0.4921594658    1.2710529505   -0.0736802661          0.0011
H798       H    0.4949821020    1.2110443933   -0.0471549582          0.0011
H799       H    0.5039613487    1.2838327631    0.0372261912          0.0011
C800       C    0.4994116263    1.2807620927   -0.0055291556          0.0011
H801       H    0.5016853412    1.2233160050    0.0158377457          0.0011
C802       C    0.5010947014    1.3322753663    0.0102872957          0.0011
N803       N    0.5000000000    1.3540797661    0.0000000000          0.0011
N804       N    0.4971599516    1.3503936923   -0.0266889367          0.0011
N805       N    0.4965339601    1.3258269822   -0.0325716000          0.0011
H806       H    0.5044774360    1.3421328674    0.0420760456          0.0011
H807       H    0.5025157332    1.3039975318    0.0236412327          0.0011
H808       H    0.4965328216    1.3005172079   -0.0325822987          0.0011
H809       H    0.6583629502    0.8013256886    1.4881925188          0.0011
H810       H    0.4950252128    1.2068452469   -0.0467498309          0.0011
H811       H    0.4962523711    1.1999380802   -0.0352177906          0.0011
C746       C    0.5000000000    1.0000000000   -0.1459202339          0.0011
C747       C    0.5000000000    1.0516358623   -0.1352362925          0.0011
C748       C    0.5000000000    1.6145918109    0.0129191386          0.0011
C749       C    0.5000000000    1.0113307905   -0.2081278290          0.0011
C750       C    0.5000000000    0.9815299317   -0.1962027580          0.0011
C751       C    0.5000000000    0.9750411108   -0.1615350139          0.0011
C752       C    0.5000000000    1.0151078339   -0.2391525911          0.0011
C753       C    0.5000000000    1.0719970307   -0.1968368976          0.0011
C754       C    0.5000000000    1.0493715012   -0.1352926977          0.0011
H755       H    0.5000000000    0.9415559926   -0.1535084393          0.0011
H756       H    0.5000000000    0.9549623878   -0.2192608574          0.0011
N757       N    0.5000000000    1.0485937553   -0.1352847214          0.0011
O758       O    0.5000000000    0.9920397682   -0.2566047436          0.0011
C759       C    0.5000000000    1.0321367495   -0.2764256406          0.0011
C760       C    0.5000000000    1.0386076746   -0.2485857400          0.0011
C761       C    0.5000000000    1.0095770058   -0.3131016137          0.0011
H762       H    0.5000000000    1.0712745685   -0.2429448736          0.0011
H763       H    0.5000000000    1.0510077613   -0.3037198582          0.0011
H764       H    0.5000000000    1.0740962590   -0.2710529505          0.0011
H765       H    0.5000000000    1.0474211913   -0.2110443933          0.0011
H766       H    0.5000000000    0.9625636327   -0.2838327631          0.0011
C767       C    0.5000000000    1.0055603728   -0.2807620927          0.0011
H768       H    0.5000000000    0.9840728357   -0.2233160050          0.0011
C769       C    0.5000000000    0.9896546231   -0.3322753663          0.0011
N770       N    0.5000000000    1.0000000000   -0.3540797661          0.0011
N771       N    0.5000000000    1.0268396203   -0.3503936923          0.0011
N772       N    0.5000000000    1.0327554967   -0.3258269822          0.0011
H773       H    0.5000000000    0.9576863964   -0.3421328674          0.0011
H774       H    0.5000000000    0.9762252908   -0.3039975318          0.0011
H775       H    0.5000000000    1.0327662557   -0.3005172079          0.0011
H776       H    0.5000000000   -0.4965947338    0.1986743114          0.0011
H777       H    0.5000000000    1.0470137767   -0.2068452469          0.0011
H778       H    0.5000000000    1.0354166274   -0.1999380802          0.0011
C713       C    0.5000000000    1.0000000000    0.1459202339          0.0011
C714       C    0.5000000000    0.9483641377    0.1352362925          0.0011
C715       C    0.5000000000    0.3854081891   -0.0129191386          0.0011
C716       C    0.5000000000    0.9886692095    0.2081278290          0.0011
C717       C    0.5000000000    1.0184700683    0.1962027580          0.0011
C718       C    0.5000000000    1.0249588892    0.1615350139          0.0011
C719       C    0.5000000000    0.9848921661    0.2391525911          0.0011
C720       C    0.5000000000    0.9280029693    0.1968368976          0.0011
C721       C    0.5000000000    0.9506284988    0.1352926977          0.0011
H722       H    0.5000000000    1.0584440074    0.1535084393          0.0011
H723       H    0.5000000000    1.0450376122    0.2192608574          0.0011
N724       N    0.5000000000    0.9514062447    0.1352847214          0.0011
O725       O    0.5000000000    1.0079602318    0.2566047436          0.0011
C726       C    0.5000000000    0.9678632505    0.2764256406          0.0011
C727       C    0.5000000000    0.9613923254    0.2485857400          0.0011
C728       C    0.5000000000    0.9904229942    0.3131016137          0.0011
H729       H    0.5000000000    0.9287254315    0.2429448736          0.0011
H730       H    0.5000000000    0.9489922387    0.3037198582          0.0011
H731       H    0.5000000000    0.9259037410    0.2710529505          0.0011
H732       H    0.5000000000    0.9525788087    0.2110443933          0.0011
H733       H    0.5000000000    1.0374363673    0.2838327631          0.0011
C734       C    0.5000000000    0.9944396272    0.2807620927          0.0011
H735       H    0.5000000000    1.0159271643    0.2233160050          0.0011
C736       C    0.5000000000    1.0103453769    0.3322753663          0.0011
N737       N    0.5000000000    1.0000000000    0.3540797661          0.0011
N738       N    0.5000000000    0.9731603797    0.3503936923          0.0011
N739       N    0.5000000000    0.9672445033    0.3258269822          0.0011
H740       H    0.5000000000    1.0423136036    0.3421328674          0.0011
H741       H    0.5000000000    1.0237747092    0.3039975318          0.0011
H742       H    0.5000000000    0.9672337443    0.3005172079          0.0011
H743       H    0.5000000000    2.4965947338   -0.1986743114          0.0011
H744       H    0.5000000000    0.9529862233    0.2068452469          0.0011
H745       H    0.5000000000    0.9645833726    0.1999380802          0.0011
C680       C    0.8540797661    0.5000000000    0.5000000000          0.0011
C681       C    0.8647637075    0.4634879316    0.5365120684          0.0011
C682       C    1.0129191386    0.0654179629    0.9345820371          0.0011
C683       C    0.7918721710    0.4919879212    0.5080120788          0.0011
C684       C    0.8037972420    0.5130603106    0.4869396894          0.0011
C685       C    0.8384649861    0.5176485998    0.4823514002          0.0011
C686       C    0.7608474089    0.4893171482    0.5106828518          0.0011
C687       C    0.8031631024    0.4490904114    0.5509095886          0.0011
C688       C    0.8647073023    0.4650890767    0.5349109233          0.0011
H689       H    0.8464915607    0.5413261539    0.4586738461          0.0011
H690       H    0.7807391426    0.5318464010    0.4681535990          0.0011
N691       N    0.8647152786    0.4656390261    0.5343609739          0.0011
O692       O    0.7433952564    0.5056287339    0.4943712661          0.0011
C693       C    0.7235743594    0.4772758865    0.5227241135          0.0011
C694       C    0.7514142600    0.4727002515    0.5272997485          0.0011
C695       C    0.6868983863    0.4932280342    0.5067719658          0.0011
H696       H    0.7570551264    0.4496012693    0.5503987307          0.0011
H697       H    0.6962801418    0.4639320661    0.5360679339          0.0011
H698       H    0.7289470495    0.4476060328    0.5523939672          0.0011
H699       H    0.7889556067    0.4664681541    0.5335318459          0.0011
H700       H    0.7161672369    0.5264715092    0.4735284908          0.0011
C701       C    0.7192379073    0.4960682227    0.5039317773          0.0011
H702       H    0.7766839950    0.5112622059    0.4887377941          0.0011
C703       C    0.6677246337    0.5073152862    0.4926847138          0.0011
N704       N    0.6459202339    0.5000000000    0.5000000000          0.0011
N705       N    0.6496063077    0.4810215225    0.5189784775          0.0011
N706       N    0.6741730178    0.4768383662    0.5231616338          0.0011
H707       H    0.6578671326    0.5299202360    0.4700797640          0.0011
H708       H    0.6960024682    0.5168112581    0.4831887419          0.0011
H709       H    0.6994827921    0.4768307584    0.5231692416          0.0011
H710       H    1.1986743114    1.5582522849   -0.5582522849          0.0011
H711       H    0.7931547531    0.4667562397    0.5332437603          0.0011
H712       H    0.8000619198    0.4749566626    0.5250433374          0.0011
C647       C    1.1459202339    0.5000000000    0.5000000000          0.0011
C648       C    1.1352362925    0.5365120684    0.4634879316          0.0011
C649       C    0.9870808614    0.9345820371    0.0654179629          0.0011
C650       C    1.2081278290    0.5080120788    0.4919879212          0.0011
C651       C    1.1962027580    0.4869396894    0.5130603106          0.0011
C652       C    1.1615350139    0.4823514002    0.5176485998          0.0011
C653       C    1.2391525911    0.5106828518    0.4893171482          0.0187
C654       C    1.1968368976    0.5509095886    0.4490904114          0.0011
C655       C    1.1352926977    0.5349109233    0.4650890767          0.0011
H656       H    1.1535084393    0.4586738461    0.5413261539          0.0011
H657       H    1.2192608574    0.4681535990    0.5318464010          0.0011
N658       N    1.1352847214    0.5343609739    0.4656390261          0.0011
O659       O    1.2566047436    0.4943712661    0.5056287339          0.0011
C660       C    1.2764256406    0.5227241135    0.4772758865          0.0011
C661       C    1.2485857400    0.5272997485    0.4727002515          0.0011
C662       C    1.3131016137    0.5067719658    0.4932280342          0.0011
H663       H    1.2429448736    0.5503987307    0.4496012693          0.0011
H664       H    1.3037198582    0.5360679339    0.4639320661          0.0011
H665       H    1.2710529505    0.5523939672    0.4476060328          0.0011
H666       H    1.2110443933    0.5335318459    0.4664681541          0.0011
H667       H    1.2838327631    0.4735284908    0.5264715092          0.0011
C668       C    1.2807620927    0.5039317773    0.4960682227          0.0011
H669       H    1.2233160050    0.4887377941    0.5112622059          0.0011
C670       C    1.3322753663    0.4926847138    0.5073152862          0.0011
N671       N    1.3540797661    0.5000000000    0.5000000000          0.0011
N672       N    1.3503936923    0.5189784775    0.4810215225          0.0011
N673       N    1.3258269822    0.5231616338    0.4768383662          0.0011
H674       H    1.3421328674    0.4700797640    0.5299202360          0.0011
H675       H    1.3039975318    0.4831887419    0.5168112581          0.0011
H676       H    1.3005172079    0.5231692416    0.4768307584          0.0011
H677       H    0.8013256886   -0.5582522849    1.5582522849          0.0011
H678       H    1.2068452469    0.5332437603    0.4667562397          0.0011
H679       H    1.1999380802    0.5250433374    0.4749566626          0.0011
C614       C    0.8540797661    0.5000000000    0.0000000000          0.0011
C615       C    0.8647637075    0.4515513769    0.0178603808          0.0011
C616       C    1.0129191386   -0.0766559447    0.2125817853          0.0011
C617       C    0.7918721710    0.4893686060    0.0039192186          0.0011
C618       C    0.8037972420    0.5173299978   -0.0063886307          0.0011
C619       C    0.8384649861    0.5234182942   -0.0086330555          0.0011
C620       C    0.7608474089    0.4858247017    0.0052256640          0.0011
C621       C    0.8031631024    0.4324470079    0.0249031260          0.0011
C622       C    0.8647073023    0.4536759697    0.0170771587          0.0011
H623       H    0.8464915607    0.5548365333   -0.0202152570          0.0011
H624       H    0.7807391426    0.5422576519   -0.0155781054          0.0011
N625       N    0.8647152786    0.4544057090    0.0168081433          0.0011
O626       O    0.7433952564    0.5074688841   -0.0027533727          0.0011
C627       C    0.7235743594    0.4698469012    0.0111158129          0.0011
C628       C    0.7514142600    0.4637753958    0.0133540478          0.0011
C629       C    0.6868983863    0.4910141378    0.0033126003          0.0011
H630       H    0.7570551264    0.4331248759    0.0246532329          0.0011
H631       H    0.6962801418    0.4521407082    0.0176431263          0.0011
H632       H    0.7289470495    0.4304773551    0.0256292302          0.0011
H633       H    0.7889556067    0.4555058961    0.0164025640          0.0011
H634       H    0.7161672369    0.5351255962   -0.0129489031          0.0011
C635       C    0.7192379073    0.4947828429    0.0019232830          0.0011
H636       H    0.7766839950    0.5149440553   -0.0055090630          0.0011
C637       C    0.6677246337    0.5097068054   -0.0035783729          0.0011
N638       N    0.6459202339    0.5000000000    0.0000000000          0.0011
N639       N    0.6496063077    0.4748170634    0.0092835835          0.0011
N640       N    0.6741730178    0.4692663463    0.0113298320          0.0011
H641       H    0.6578671326    0.5397017835   -0.0146358953          0.0011
H642       H    0.6960024682    0.5223072080   -0.0082234583          0.0011
H643       H    0.6994827921    0.4692562514    0.0113335534          0.0011
H644       H    1.1986743114    1.9042169694   -0.5176586714          0.0011
H645       H    0.7931547531    0.4558881630    0.0162616429          0.0011
H646       H    0.8000619198    0.4667694747    0.0122502932          0.0011
C581       C    1.1459202339    0.5000000000    0.0000000000          0.0011
C582       C    1.1352362925    0.4659075868    0.0387810475          0.0011
C583       C    0.9870808614    0.0942177202    0.4615883831          0.0011
C584       C    1.2081278290    0.4925188818    0.0085099755          0.0011
C585       C    1.1962027580    0.5121948036   -0.0138719209          0.0011
C586       C    1.1615350139    0.5164790268   -0.0187453414          0.0011
C587       C    1.2391525911    0.4900251009    0.0113467191          0.0011
C588       C    1.1968368976    0.4524641905    0.0540732766          0.0011
C589       C    1.1352926977    0.4674026241    0.0370804020          0.0011
H590       H    1.1535084393    0.5385874692   -0.0438942960          0.0011
H591       H    1.2192608574    0.5297359396   -0.0338254403          0.0011
N592       N    1.1352847214    0.4679161283    0.0364962769          0.0011
O593       O    1.2566047436    0.5052557176   -0.0059785218          0.0011
C594       C    1.2764256406    0.4787818138    0.0241362640          0.0011
C595       C    1.2485857400    0.4745094062    0.0289962440          0.0011
C596       C    1.3131016137    0.4936768125    0.0071927978          0.0011
H597       H    1.2429448736    0.4529411938    0.0535306723          0.0011
H598       H    1.3037198582    0.4663222885    0.0383093130          0.0011
H599       H    1.2710529505    0.4510781817    0.0556498993          0.0011
H600       H    1.2110443933    0.4686903099    0.0356156243          0.0011
H601       H    1.2838327631    0.5247172419   -0.0281165352          0.0011
C602       C    1.2807620927    0.4963287816    0.0041761108          0.0011
H603       H    1.2233160050    0.5105158594   -0.0119620761          0.0011
C604       C    1.3322753663    0.5068305021   -0.0077698819          0.0011
N605       N    1.3540797661    0.5000000000    0.0000000000          0.0011
N606       N    1.3503936923    0.4822792264    0.0201578620          0.0011
N607       N    1.3258269822    0.4783732880    0.0246009733          0.0011
H608       H    1.3421328674    0.5279374216   -0.0317795771          0.0011
H609       H    1.3039975318    0.5156971758   -0.0178559645          0.0011
H610       H    1.3005172079    0.4783661843    0.0246090539          0.0011
H611       H    0.8013256886    1.4881218920   -1.1240155354          0.0011
H612       H    1.2068452469    0.4689593041    0.0353096360          0.0011
H613       H    1.1999380802    0.4766162849    0.0265996121          0.0011
C548       C    1.0000000000    0.5000000000   -0.1459202339          0.0011
C549       C    1.0000000000    0.5516358623   -0.1352362925          0.0011
C550       C    1.0000000000    1.1145918109    0.0129191386          0.0011
C551       C    1.0000000000    0.5113307905   -0.2081278290          0.0011
C552       C    1.0000000000    0.4815299317   -0.1962027580          0.0011
C553       C    1.0000000000    0.4750411108   -0.1615350139          0.0011
C554       C    1.0000000000    0.5151078339   -0.2391525911          0.0011
C555       C    1.0000000000    0.5719970307   -0.1968368976          0.0011
C556       C    1.0000000000    0.5493715012   -0.1352926977          0.0011
H557       H    1.0000000000    0.4415559926   -0.1535084393          0.0011
H558       H    1.0000000000    0.4549623878   -0.2192608574          0.0011
N559       N    1.0000000000    0.5485937553   -0.1352847214          0.0011
O560       O    1.0000000000    0.4920397682   -0.2566047436          0.0011
C561       C    1.0000000000    0.5321367495   -0.2764256406          0.0011
C562       C    1.0000000000    0.5386076746   -0.2485857400          0.0011
C563       C    1.0000000000    0.5095770058   -0.3131016137          0.0011
H564       H    1.0000000000    0.5712745685   -0.2429448736          0.0011
H565       H    1.0000000000    0.5510077613   -0.3037198582          0.0011
H566       H    1.0000000000    0.5740962590   -0.2710529505          0.0011
H567       H    1.0000000000    0.5474211913   -0.2110443933          0.0011
H568       H    1.0000000000    0.4625636327   -0.2838327631          0.0011
C569       C    1.0000000000    0.5055603728   -0.2807620927          0.0011
H570       H    1.0000000000    0.4840728357   -0.2233160050          0.0011
C571       C    1.0000000000    0.4896546231   -0.3322753663          0.0011
N572       N    1.0000000000    0.5000000000   -0.3540797661          0.0011
N573       N    1.0000000000    0.5268396203   -0.3503936923          0.0011
N574       N    1.0000000000    0.5327554967   -0.3258269822          0.0011
H575       H    1.0000000000    0.4576863964   -0.3421328674          0.0011
H576       H    1.0000000000    0.4762252908   -0.3039975318          0.0011
H577       H    1.0000000000    0.5327662557   -0.3005172079          0.0011
H578       H    1.0000000000   -0.9965947338    0.1986743114          0.0011
H579       H    1.0000000000    0.5470137767   -0.2068452469          0.0011
H580       H    1.0000000000    0.5354166274   -0.1999380802          0.0011
C515       C    1.0000000000    0.5000000000    0.1459202339          0.0011
C516       C    0.9483641377    0.5000000000    0.1352362925          0.0011
C517       C    0.3854081891    0.5000000000   -0.0129191386          0.0011
C518       C    0.9886692095    0.5000000000    0.2081278290          0.0011
C519       C    1.0184700683    0.5000000000    0.1962027580          0.0011
C520       C    1.0249588892    0.5000000000    0.1615350139          0.0011
C521       C    0.9848921661    0.5000000000    0.2391525911          0.0011
C522       C    0.9280029693    0.5000000000    0.1968368976          0.0011
C523       C    0.9506284988    0.5000000000    0.1352926977          0.0011
H524       H    1.0584440074    0.5000000000    0.1535084393          0.0011
H525       H    1.0450376122    0.5000000000    0.2192608574          0.0011
N526       N    0.9514062447    0.5000000000    0.1352847214          0.0011
O527       O    1.0079602318    0.5000000000    0.2566047436          0.0011
C528       C    0.9678632505    0.5000000000    0.2764256406          0.0011
C529       C    0.9613923254    0.5000000000    0.2485857400          0.0011
C530       C    0.9904229942    0.5000000000    0.3131016137          0.0011
H531       H    0.9287254315    0.5000000000    0.2429448736          0.0011
H532       H    0.9489922387    0.5000000000    0.3037198582          0.0011
H533       H    0.9259037410    0.5000000000    0.2710529505          0.0011
H534       H    0.9525788087    0.5000000000    0.2110443933          0.0011
H535       H    1.0374363673    0.5000000000    0.2838327631          0.0011
C536       C    0.9944396272    0.5000000000    0.2807620927          0.0011
H537       H    1.0159271643    0.5000000000    0.2233160050          0.0011
C538       C    1.0103453769    0.5000000000    0.3322753663          0.0011
N539       N    1.0000000000    0.5000000000    0.3540797661          0.0011
N540       N    0.9731603797    0.5000000000    0.3503936923          0.0011
N541       N    0.9672445033    0.5000000000    0.3258269822          0.0011
H542       H    1.0423136036    0.5000000000    0.3421328674          0.0011
H543       H    1.0237747092    0.5000000000    0.3039975318          0.0011
H544       H    0.9672337443    0.5000000000    0.3005172079          0.0011
H545       H    2.4965947338    0.5000000000   -0.1986743114          0.0011
H546       H    0.9529862233    0.5000000000    0.2068452469          0.0011
H547       H    0.9645833726    0.5000000000    0.1999380802          0.0011
C482       C    1.0000000000   -0.1459202339    0.5000000000          0.0011
C483       C    1.0516358623   -0.1352362925    0.5000000000          0.0011
C484       C    1.6145918109    0.0129191386    0.5000000000          0.0011
C485       C    1.0113307905   -0.2081278290    0.5000000000          0.0011
C486       C    0.9815299317   -0.1962027580    0.5000000000          0.0011
C487       C    0.9750411108   -0.1615350139    0.5000000000          0.0011
C488       C    1.0151078339   -0.2391525911    0.5000000000          0.0011
C489       C    1.0719970307   -0.1968368976    0.5000000000          0.0011
C490       C    1.0493715012   -0.1352926977    0.5000000000          0.0011
H491       H    0.9415559926   -0.1535084393    0.5000000000          0.0011
H492       H    0.9549623878   -0.2192608574    0.5000000000          0.0011
N493       N    1.0485937553   -0.1352847214    0.5000000000          0.0011
O494       O    0.9920397682   -0.2566047436    0.5000000000          0.0011
C495       C    1.0321367495   -0.2764256406    0.5000000000          0.0011
C496       C    1.0386076746   -0.2485857400    0.5000000000          0.0011
C497       C    1.0095770058   -0.3131016137    0.5000000000          0.0011
H498       H    1.0712745685   -0.2429448736    0.5000000000          0.0011
H499       H    1.0510077613   -0.3037198582    0.5000000000          0.0011
H500       H    1.0740962590   -0.2710529505    0.5000000000          0.0011
H501       H    1.0474211913   -0.2110443933    0.5000000000          0.0011
H502       H    0.9625636327   -0.2838327631    0.5000000000          0.0011
C503       C    1.0055603728   -0.2807620927    0.5000000000          0.0011
H504       H    0.9840728357   -0.2233160050    0.5000000000          0.0011
C505       C    0.9896546231   -0.3322753663    0.5000000000          0.0011
N506       N    1.0000000000   -0.3540797661    0.5000000000          0.0011
N507       N    1.0268396203   -0.3503936923    0.5000000000          0.0011
N508       N    1.0327554967   -0.3258269822    0.5000000000          0.0011
H509       H    0.9576863964   -0.3421328674    0.5000000000          0.0011
H510       H    0.9762252908   -0.3039975318    0.5000000000          0.0011
H511       H    1.0327662557   -0.3005172079    0.5000000000          0.0011
H512       H   -0.4965947338    0.1986743114    0.5000000000          0.0011
H513       H    1.0470137767   -0.2068452469    0.5000000000          0.0011
H514       H    1.0354166274   -0.1999380802    0.5000000000          0.0011
C449       C    1.0000000000    0.1459202339    0.5000000000          0.0011
C450       C    0.9483641377    0.1352362925    0.5000000000          0.0011
C451       C    0.3854081891   -0.0129191386    0.5000000000          0.0011
C452       C    0.9886692095    0.2081278290    0.5000000000          0.0011
C453       C    1.0184700683    0.1962027580    0.5000000000          0.0011
C454       C    1.0249588892    0.1615350139    0.5000000000          0.0011
C455       C    0.9848921661    0.2391525911    0.5000000000          0.0011
C456       C    0.9280029693    0.1968368976    0.5000000000          0.0011
C457       C    0.9506284988    0.1352926977    0.5000000000          0.0011
H458       H    1.0584440074    0.1535084393    0.5000000000          0.0011
H459       H    1.0450376122    0.2192608574    0.5000000000          0.0011
N460       N    0.9514062447    0.1352847214    0.5000000000          0.0011
O461       O    1.0079602318    0.2566047436    0.5000000000          0.0011
C462       C    0.9678632505    0.2764256406    0.5000000000          0.0011
C463       C    0.9613923254    0.2485857400    0.5000000000          0.0011
C464       C    0.9904229942    0.3131016137    0.5000000000          0.0011
H465       H    0.9287254315    0.2429448736    0.5000000000          0.0011
H466       H    0.9489922387    0.3037198582    0.5000000000          0.0011
H467       H    0.9259037410    0.2710529505    0.5000000000          0.0011
H468       H    0.9525788087    0.2110443933    0.5000000000          0.0011
H469       H    1.0374363673    0.2838327631    0.5000000000          0.0011
C470       C    0.9944396272    0.2807620927    0.5000000000          0.0011
H471       H    1.0159271643    0.2233160050    0.5000000000          0.0011
C472       C    1.0103453769    0.3322753663    0.5000000000          0.0011
N473       N    1.0000000000    0.3540797661    0.5000000000          0.0011
N474       N    0.9731603797    0.3503936923    0.5000000000          0.0011
N475       N    0.9672445033    0.3258269822    0.5000000000          0.0011
H476       H    1.0423136036    0.3421328674    0.5000000000          0.0011
H477       H    1.0237747092    0.3039975318    0.5000000000          0.0011
H478       H    0.9672337443    0.3005172079    0.5000000000          0.0011
H479       H    2.4965947338   -0.1986743114    0.5000000000          0.0011
H480       H    0.9529862233    0.2068452469    0.5000000000          0.0011
H481       H    0.9645833726    0.1999380802    0.5000000000          0.0011
C416       C    0.8540797661   -0.0000000000    0.5000000000          0.0011
C417       C    0.8647637075   -0.0199691798    0.5476182122          0.0011
C418       C    1.0129191386   -0.2376816000    1.0667720451          0.0011
C419       C    0.7918721710   -0.0043819660    0.5104491716          0.0011
C420       C    0.8037972420    0.0071429448    0.4829670389          0.0011
C421       C    0.8384649861    0.0096523719    0.4769830961          0.0011
C422       C    0.7608474089   -0.0058426651    0.5139323332          0.0011
C423       C    0.8031631024   -0.0278434713    0.5663951319          0.0011
C424       C    0.8647073023   -0.0190934815    0.5455300350          0.0011
H425       H    0.8464915607    0.0226020994    0.4461033665          0.0011
H426       H    0.7807391426    0.0174174331    0.4584666455          0.0011
N427       N    0.8647152786   -0.0187927032    0.5448128035          0.0011
O428       O    0.7433952564    0.0030784670    0.4926591328          0.0011
C429       C    0.7235743594   -0.0124282717    0.5296362739          0.0011
C430       C    0.7514142600   -0.0149307780    0.5356037134          0.0011
C431       C    0.6868983863   -0.0037037234    0.5088318443          0.0011
H432       H    0.7570551264   -0.0275640729    0.5657288826          0.0011
H433       H    0.6962801418   -0.0197262738    0.5470389821          0.0011
H434       H    0.7289470495   -0.0286553076    0.5683310247          0.0011
H435       H    0.7889556067   -0.0183392366    0.5437314736          0.0011
H436       H    0.7161672369    0.0144777973    0.4654764576          0.0011
C437       C    0.7192379073   -0.0021503676    0.5051277349          0.0011
H438       H    0.7766839950    0.0061595254    0.4853120863          0.0011
C439       C    0.6677246337    0.0040008762    0.4904595695          0.0011
N440       N    0.6459202339   -0.0000000000    0.5000000000          0.0011
N441       N    0.6496063077   -0.0103797086    0.5247513003          0.0011
N442       N    0.6741730178   -0.0126675603    0.5302068780          0.0011
H443       H    0.6578671326    0.0163639749    0.4609787062          0.0011
H444       H    0.6960024682    0.0091944130    0.4780751382          0.0011
H445       H    0.6994827921   -0.0126717212    0.5302167999          0.0011
H446       H    1.1986743114    0.5787793207   -0.8801486496          0.0011
H447       H    0.7931547531   -0.0181816768    0.5433557589          0.0011
H448       H    0.8000619198   -0.0136967016    0.5326609532          0.0011
C383       C    1.1459202339   -0.0000000000    0.5000000000          0.0011
C384       C    1.1352362925   -0.0125492007    0.5500877215          0.0011
C385       C    0.9870808614   -0.1493658797    1.0961651852          0.0011
C386       C    1.2081278290   -0.0027537521    0.5109910719          0.0011
C387       C    1.1962027580    0.0044888298    0.4820836993          0.0011
C388       C    1.1615350139    0.0060658251    0.4757894256          0.0011
C389       C    1.2391525911   -0.0036716970    0.5146548724          0.0011
C390       C    1.1968368976   -0.0174976295    0.5698384234          0.0011
C391       C    1.1352926977   -0.0119988870    0.5478912501          0.0011
H392       H    1.1535084393    0.0142038023    0.4433082546          0.0011
H393       H    1.2192608574    0.0109456105    0.4563127006          0.0011
N394       N    1.1352847214   -0.0118098694    0.5471368225          0.0011
O395       O    1.2566047436    0.0019345963    0.4922784310          0.0011
C396       C    1.2764256406   -0.0078102796    0.5311732289          0.0011
C397       C    1.2485857400   -0.0093829257    0.5374501435          0.0011
C398       C    1.3131016137   -0.0023275252    0.5092898690          0.0011
H399       H    1.2429448736   -0.0173220476    0.5691376221          0.0011
H400       H    1.3037198582   -0.0123965517    0.5494784521          0.0011
H401       H    1.2710529505   -0.0180078106    0.5718747129          0.0011
H402       H    1.2110443933   -0.0115248980    0.5459994142          0.0011
H403       H    1.2838327631    0.0090982598    0.4636860458          0.0011
C404       C    1.2807620927   -0.0013513522    0.5053936623          0.0011
H405       H    1.2233160050    0.0038708210    0.4845503622          0.0011
C406       C    1.3322753663    0.0025142644    0.4899647971          0.0011
N407       N    1.3540797661   -0.0000000000    0.5000000000          0.0011
N408       N    1.3503936923   -0.0065229042    0.5260349177          0.0011
N409       N    1.3258269822   -0.0079606553    0.5317734249          0.0011
H410       H    1.3421328674    0.0102835874    0.4589550384          0.0011
H411       H    1.3039975318    0.0057780307    0.4769381016          0.0011
H412       H    1.3005172079   -0.0079632701    0.5317838613          0.0011
H413       H    0.8013256886    0.3637213921   -0.9517239910          0.0011
H414       H    1.2068452469   -0.0114258830    0.5456042147          0.0011
H415       H    1.1999380802   -0.0086073970    0.5343547699          0.0011
C350       C   -0.0000000000   -0.1459202339    0.0000000000          0.0011
C351       C   -0.0514800383   -0.1352362925   -0.0040084832          0.0011
C352       C   -0.6127371273    0.0129191386   -0.0477106572          0.0011
C353       C   -0.0112965970   -0.2081278290   -0.0008796073          0.0011
C354       C    0.0184143303   -0.1962027580    0.0014338282          0.0011
C355       C    0.0248835695   -0.1615350139    0.0019375543          0.0011
C356       C   -0.0150622422   -0.2391525911   -0.0011728186          0.0011
C357       C   -0.0717797618   -0.1968368976   -0.0055891172          0.0011
C358       C   -0.0492225104   -0.1352926977   -0.0038327012          0.0011
H359       H    0.0582676380   -0.1535084393    0.0045369983          0.0011
H360       H    0.0449017000   -0.2192608574    0.0034962621          0.0011
N361       N   -0.0484471115   -0.1352847214   -0.0037723249          0.0011
O362       O    0.0079362098   -0.2566047436    0.0006179514          0.0011
C363       C   -0.0320397688   -0.2764256406   -0.0024947704          0.0011
C364       C   -0.0384911664   -0.2485857400   -0.0029971072          0.0011
C365       C   -0.0095481048   -0.3131016137   -0.0007434613          0.0011
H366       H   -0.0710594798   -0.2429448736   -0.0055330326          0.0011
H367       H   -0.0508538327   -0.3037198582   -0.0039597238          0.0011
H368       H   -0.0738726551   -0.2710529505   -0.0057520799          0.0011
H369       H   -0.0472780861   -0.2110443933   -0.0036812990          0.0011
H370       H    0.0373233938   -0.2838327631    0.0029061788          0.0011
C371       C   -0.0055435930   -0.2807620927   -0.0004316508          0.0011
H372       H    0.0158791001   -0.2233160050    0.0012364230          0.0011
C373       C    0.0103141572   -0.3322753663    0.0008031098          0.0011
N374       N    0.0000000000   -0.3540797661    0.0000000000          0.0011
N375       N   -0.0267586251   -0.3503936923   -0.0020835551          0.0011
N376       N   -0.0326566488   -0.3258269822   -0.0025428036          0.0011
H377       H    0.0421859117   -0.3421328674    0.0032847978          0.0011
H378       H    0.0237029631   -0.3039975318    0.0018456266          0.0011
H379       H   -0.0326673754   -0.3005172079   -0.0025436388          0.0011
H380       H    1.4920783871    0.1986743114    0.1161803933          0.0011
H381       H   -0.0468719009   -0.2068452469   -0.0036496714          0.0011
H382       H   -0.0353097489   -0.1999380802   -0.0027493867          0.0011
C317       C    0.0000000000    0.3540797661    0.0000000000          0.0011
C318       C    0.0516358623    0.3647637075    0.0000000000          0.0011
C319       C    0.6145918109    0.5129191386    0.0000000000          0.0011
C320       C    0.0113307905    0.2918721710    0.0000000000          0.0011
C321       C   -0.0184700683    0.3037972420    0.0000000000          0.0011
C322       C   -0.0249588892    0.3384649861    0.0000000000          0.0011
C323       C    0.0151078339    0.2608474089    0.0000000000          0.0011
C324       C    0.0719970307    0.3031631024    0.0000000000          0.0011
C325       C    0.0493715012    0.3647073023    0.0000000000          0.0011
H326       H   -0.0584440074    0.3464915607    0.0000000000          0.0011
H327       H   -0.0450376122    0.2807391426    0.0000000000          0.0011
N328       N    0.0485937553    0.3647152786    0.0000000000          0.0011
O329       O   -0.0079602318    0.2433952564    0.0000000000          0.0011
C330       C    0.0321367495    0.2235743594    0.0000000000          0.0011
C331       C    0.0386076746    0.2514142600    0.0000000000          0.0011
C332       C    0.0095770058    0.1868983863    0.0000000000          0.0011
H333       H    0.0712745685    0.2570551264    0.0000000000          0.0011
H334       H    0.0510077613    0.1962801418    0.0000000000          0.0011
H335       H    0.0740962590    0.2289470495    0.0000000000          0.0011
H336       H    0.0474211913    0.2889556067    0.0000000000          0.0011
H337       H   -0.0374363673    0.2161672369    0.0000000000          0.0011
C338       C    0.0055603728    0.2192379073    0.0000000000          0.0011
H339       H   -0.0159271643    0.2766839950    0.0000000000          0.0011
C340       C   -0.0103453769    0.1677246337    0.0000000000          0.0011
N341       N    0.0000000000    0.1459202339    0.0000000000          0.0011
N342       N    0.0268396203    0.1496063077    0.0000000000          0.0011
N343       N    0.0327554967    0.1741730178    0.0000000000          0.0011
H344       H   -0.0423136036    0.1578671326    0.0000000000          0.0011
H345       H   -0.0237747092    0.1960024682    0.0000000000          0.0011
H346       H    0.0327662557    0.1994827921    0.0000000000          0.0011
H347       H   -1.4965947338    0.6986743114   -0.0000000000          0.0011
H348       H    0.0470137767    0.2931547531    0.0000000000          0.0011
H349       H    0.0354166274    0.3000619198    0.0000000000          0.0011
C284       C   -0.1459202339   -0.0000000000    0.0000000000          0.0011
C285       C   -0.1352362925   -0.0274680330    0.0437237858          0.0011
C286       C    0.0129191386   -0.3269361137    0.5204189385          0.0011
C287       C   -0.2081278290   -0.0060274877    0.0095945924          0.0011
C288       C   -0.1962027580    0.0098252731   -0.0156399308          0.0011
C289       C   -0.1615350139    0.0132770435   -0.0211344805          0.0011
C290       C   -0.2391525911   -0.0080367106    0.0127928858          0.0011
C291       C   -0.1968368976   -0.0382992891    0.0609650464          0.0011
C292       C   -0.1352926977   -0.0262634914    0.0418063889          0.0011
H293       H   -0.1535084393    0.0310896701   -0.0494887301          0.0011
H294       H   -0.2192608574    0.0239580509   -0.0381365744          0.0011
N295       N   -0.1352847214   -0.0258497644    0.0411478157          0.0011
O296       O   -0.2566047436    0.0042344971   -0.0067404989          0.0011
C297       C   -0.2764256406   -0.0170953530    0.0272124892          0.0011
C298       C   -0.2485857400   -0.0205376038    0.0326918854          0.0011
C299       C   -0.3131016137   -0.0050945506    0.0081095373          0.0011
H300       H   -0.2429448736   -0.0379149706    0.0603532859          0.0011
H301       H   -0.3037198582   -0.0271339106    0.0431919276          0.0011
H302       H   -0.2710529505   -0.0394159872    0.0627426135          0.0011
H303       H   -0.2110443933   -0.0252260113    0.0401549217          0.0011
H304       H   -0.2838327631    0.0199145192   -0.0317000555          0.0011
C305       C   -0.2807620927   -0.0029578765    0.0047083662          0.0011
H306       H   -0.2233160050    0.0084725587   -0.0134866716          0.0011
C307       C   -0.3322753663    0.0055032906   -0.0087601722          0.0011
N308       N   -0.3540797661   -0.0000000000    0.0000000000          0.0011
N309       N   -0.3503936923   -0.0142775107    0.0227270303          0.0011
N310       N   -0.3258269822   -0.0174244996    0.0277364268          0.0011
H311       H   -0.3421328674    0.0225089968   -0.0358299611          0.0011
H312       H   -0.3039975318    0.0126471113   -0.0201317503          0.0011
H313       H   -0.3005172079   -0.0174302230    0.0277455373          0.0011
H314       H    0.1986743114    0.7961233089   -1.2672740328          0.0011
H315       H   -0.2068452469   -0.0250092845    0.0398099345          0.0011
H316       H   -0.1999380802   -0.0188401055    0.0299897970          0.0011
C251       C    0.1459202339   -0.0000000000    0.0000000000          0.0011
C252       C    0.1352362925   -0.0191439057    0.0479559501          0.0011
C253       C   -0.0129191386   -0.2278588397    0.5707919439          0.0011
C254       C    0.2081278290   -0.0042008708    0.0105232836          0.0011
C255       C    0.1962027580    0.0068477456   -0.0171537694          0.0011
C256       C    0.1615350139    0.0092534645   -0.0231801541          0.0011
C257       C    0.2391525911   -0.0056012030    0.0140311500          0.0011
C258       C    0.1968368976   -0.0266927733    0.0668660473          0.0011
C259       C    0.1352926977   -0.0183043978    0.0458529623          0.0011
H260       H    0.1535084393    0.0216680136   -0.0542789018          0.0011
H261       H    0.2192608574    0.0166976160   -0.0418279349          0.0011
N262       N    0.1352847214   -0.0180160498    0.0451306437          0.0011
O263       O    0.2566047436    0.0029512420   -0.0073929332          0.0011
C264       C    0.2764256406   -0.0119146437    0.0298464727          0.0011
C265       C    0.2485857400   -0.0143137279    0.0358562370          0.0011
C266       C    0.3131016137   -0.0035506582    0.0088944852          0.0011
H267       H    0.2429448736   -0.0264249217    0.0661950726          0.0011
H268       H    0.3037198582   -0.0189110384    0.0473726118          0.0011
H269       H    0.2710529505   -0.0274710585    0.0688156707          0.0011
H270       H    0.2110443933   -0.0175813238    0.0440416444          0.0011
H271       H    0.2838327631    0.0138794677   -0.0347684048          0.0011
C272       C    0.2807620927   -0.0020614985    0.0051641040          0.0011
H273       H    0.2233160050    0.0059049683   -0.0147920895          0.0011
C274       C    0.3322753663    0.0038355304   -0.0096080971          0.0011
N275       N    0.3540797661   -0.0000000000    0.0000000000          0.0011
N276       N    0.3503936923   -0.0099507423    0.0249268519          0.0011
N277       N    0.3258269822   -0.0121440431    0.0304211239          0.0011
H278       H    0.3421328674    0.0156876946   -0.0392980570          0.0011
H279       H    0.3039975318    0.0088144319   -0.0220803665          0.0011
H280       H    0.3005172079   -0.0121480320    0.0304311162          0.0011
H281       H   -0.1986743114    0.5548598818   -1.3899375197          0.0011
H282       H    0.2068452469   -0.0174302755    0.0436632648          0.0011
H283       H    0.1999380802   -0.0131306527    0.0328926049          0.0011
C218       C    0.0000000000    0.0000000000   -0.1459202339          0.0011
C219       C    0.0516358623    0.0000000000   -0.1352362925          0.0011
C220       C    0.6145918109    0.0000000000    0.0129191386          0.0011
C221       C    0.0113307905    0.0000000000   -0.2081278290          0.0011
C222       C   -0.0184700683    0.0000000000   -0.1962027580          0.0011
C223       C   -0.0249588892    0.0000000000   -0.1615350139          0.0011
C224       C    0.0151078339    0.0000000000   -0.2391525911          0.0011
C225       C    0.0719970307    0.0000000000   -0.1968368976          0.0011
C226       C    0.0493715012    0.0000000000   -0.1352926977          0.0011
H227       H   -0.0584440074    0.0000000000   -0.1535084393          0.0011
H228       H   -0.0450376122    0.0000000000   -0.2192608574          0.0011
N229       N    0.0485937553    0.0000000000   -0.1352847214          0.0011
O230       O   -0.0079602318    0.0000000000   -0.2566047436          0.0011
C231       C    0.0321367495    0.0000000000   -0.2764256406          0.0011
C232       C    0.0386076746    0.0000000000   -0.2485857400          0.0011
C233       C    0.0095770058    0.0000000000   -0.3131016137          0.0011
H234       H    0.0712745685    0.0000000000   -0.2429448736          0.0011
H235       H    0.0510077613    0.0000000000   -0.3037198582          0.0011
H236       H    0.0740962590    0.0000000000   -0.2710529505          0.0011
H237       H    0.0474211913    0.0000000000   -0.2110443933          0.0011
H238       H   -0.0374363673    0.0000000000   -0.2838327631          0.0011
C239       C    0.0055603728    0.0000000000   -0.2807620927          0.0011
H240       H   -0.0159271643    0.0000000000   -0.2233160050          0.0011
C241       C   -0.0103453769    0.0000000000   -0.3322753663          0.0011
N242       N   -0.0000000000    0.0000000000   -0.3540797661          0.0011
N243       N    0.0268396203    0.0000000000   -0.3503936923          0.0011
N244       N    0.0327554967    0.0000000000   -0.3258269822          0.0011
H245       H   -0.0423136036    0.0000000000   -0.3421328674          0.0011
H246       H   -0.0237747092    0.0000000000   -0.3039975318          0.0011
H247       H    0.0327662557    0.0000000000   -0.3005172079          0.0011
H248       H   -1.4965947338   -0.0000000000    0.1986743114          0.0011
H249       H    0.0470137767    0.0000000000   -0.2068452469          0.0011
H250       H    0.0354166274    0.0000000000   -0.1999380802          0.0011
C185       C   -0.0000000000   -0.0000000000    0.1459202339          0.0011
C186       C    0.0266863657   -0.0442052052    0.1352362925          0.0011
C187       C    0.3176323792   -0.5261489957   -0.0129191386          0.0011
C188       C    0.0058559614   -0.0097002334    0.2081278290          0.0011
C189       C   -0.0095456719    0.0158121337    0.1962027580          0.0011
C190       C   -0.0128992141    0.0213671810    0.1615350139          0.0011
C191       C    0.0078080071   -0.0129337415    0.2391525911          0.0011
C192       C    0.0372093929   -0.0616363003    0.1968368976          0.0011
C193       C    0.0255161021   -0.0422666969    0.1352926977          0.0011
H194       H   -0.0302049405    0.0500336243    0.1535084393          0.0011
H195       H   -0.0232762684    0.0385564761    0.2192608574          0.0011
N196       N    0.0251141487   -0.0416008725    0.1352847214          0.0011
O197       O   -0.0041139946    0.0068147149    0.2566047436          0.0011
C198       C    0.0166088646   -0.0275121115    0.2764256406          0.0011
C199       C    0.0199531581   -0.0330518384    0.2485857400          0.0011
C200       C    0.0049495732   -0.0081988271    0.3131016137          0.0011
H201       H    0.0368360111   -0.0610178040    0.2429448736          0.0011
H202       H    0.0263617515   -0.0436674910    0.3037198582          0.0011
H203       H    0.0382943128   -0.0634334392    0.2710529505          0.0011
H204       H    0.0245081460   -0.0405970463    0.2110443933          0.0011
H205       H   -0.0193478048    0.0320490880    0.2838327631          0.0011
C206       C    0.0028737032   -0.0047602075    0.2807620927          0.0011
H207       H   -0.0082314522    0.0136351662    0.2233160050          0.0011
C208       C   -0.0053466815    0.0088566258    0.3322753663          0.0011
N209       N   -0.0000000000    0.0000000000    0.3540797661          0.0011
N210       N    0.0138712106   -0.0229772656    0.3503936923          0.0011
N211       N    0.0169286446   -0.0280418179    0.3258269822          0.0011
H212       H   -0.0218684505    0.0362244658    0.3421328674          0.0011
H213       H   -0.0122872080    0.0203534104    0.3039975318          0.0011
H214       H    0.0169342051   -0.0280510287    0.3005172079          0.0011
H215       H   -0.7734677514    1.2812273158   -0.1986743114          0.0011
H216       H    0.0242975866   -0.0402482606    0.2068452469          0.0011
H217       H    0.0183039660   -0.0303199988    0.1999380802          0.0011
loop_
_geom_bond_atom_site_label_1
_geom_bond_atom_site_label_2
_geom_bond_distance
_geom_bond_site_symmetry_2
_ccdc_geom_bond_type
Zn1          O5 1.942       .   S
Zn1          O6 1.922       .   S
Zn1         O10 1.922       .   S
Zn1         O17 1.922       .   S
Zn2          O5 1.942       .   S
Zn2          O7 1.922       .   S
Zn2          O9 1.922       .   S
Zn2         O13 1.922       .   S
Zn3          O5 1.942       .   S
Zn3          O8 1.922       .   S
Zn3         O11 1.922       .   S
Zn3         O14 1.922       .   S
Zn4          O5 1.942       .   S
Zn4         O12 1.922       .   S
Zn4         O15 1.922       .   S
Zn4         O16 1.922       .   S
O6          C18 1.304       .   A
O7          C19 1.304       .   A
O8          C20 1.304       .   A
O9          C18 1.304       .   A
O10         C20 1.304       .   A
O11         C19 1.304       .   A
O12         C21 1.304       .   A
O13         C22 1.304       .   A
O14         C21 1.304       .   A
O15         C22 1.304       .   A
O16         C23 1.304       .   A
O17         C23 1.304       .   A
C18        C185 1.540       .   S
C19        C251 1.540       .   S
C20        C350 1.540       .   S
C21        C218 1.540       .   S
C22        N341 1.540       .   S
C23        C284 1.540       .   S
Zn24        O28 1.942       .   S
Zn24        O29 1.922       .   S
Zn24        O33 1.922       .   S
Zn24        O40 1.922       .   S
Zn25        O28 1.942       .   S
Zn25        O30 1.922       .   S
Zn25        O32 1.922       .   S
Zn25        O36 1.922       .   S
Zn26        O28 1.942       .   S
Zn26        O31 1.922       .   S
Zn26        O34 1.922       .   S
Zn26        O37 1.922       .   S
Zn27        O28 1.942       .   S
Zn27        O35 1.922       .   S
Zn27        O38 1.922       .   S
Zn27        O39 1.922       .   S
O29         C41 1.304       .   A
O30         C42 1.304       .   A
O31         C43 1.304       .   A
O32         C41 1.304       .   A
O33         C43 1.304       .   A
O34         C42 1.304       .   A
O35         C44 1.304       .   A
O36         C45 1.304       .   A
O37         C44 1.304       .   A
O38         C45 1.304       .   A
O39         C46 1.304       .   A
O40         C46 1.304       .   A
C41        N209 1.540   1_655   S
C42        C383 1.540       .   S
C43        C449 1.540       .   S
C44        N242 1.540   1_656   S
C45        C482 1.540       .   S
C46        C416 1.540       .   S
Zn47        O51 1.942       .   S
Zn47        O52 1.922       .   S
Zn47        O56 1.922       .   S
Zn47        O63 1.922       .   S
Zn48        O51 1.942       .   S
Zn48        O53 1.922       .   S
Zn48        O55 1.922       .   S
Zn48        O59 1.922       .   S
Zn49        O51 1.942       .   S
Zn49        O54 1.922       .   S
Zn49        O57 1.922       .   S
Zn49        O60 1.922       .   S
Zn50        O51 1.942       .   S
Zn50        O58 1.922       .   S
Zn50        O61 1.922       .   S
Zn50        O62 1.922       .   S
O52         C64 1.304       .   A
O53         C65 1.304       .   A
O54         C66 1.304       .   A
O55         C64 1.304       .   A
O56         C66 1.304       .   A
O57         C65 1.304       .   A
O58         C67 1.304       .   A
O59         C68 1.304       .   A
O60         C67 1.304       .   A
O61         C68 1.304       .   A
O62         C69 1.304       .   A
O63         C69 1.304       .   A
C64        N374 1.540   1_665   S
C65        C515 1.540       .   S
C66        C614 1.540       .   S
C67        C317 1.540   1_655   S
C68        C581 1.540       .   S
C69        C548 1.540       .   S
Zn70        O74 1.942       .   S
Zn70        O75 1.922       .   S
Zn70        O79 1.922       .   S
Zn70        O86 1.922       .   S
Zn71        O74 1.942       .   S
Zn71        O76 1.922       .   S
Zn71        O78 1.922       .   S
Zn71        O82 1.922       .   S
Zn72        O74 1.942       .   S
Zn72        O77 1.922       .   S
Zn72        O80 1.922       .   S
Zn72        O83 1.922       .   S
Zn73        O74 1.942       .   S
Zn73        O81 1.922       .   S
Zn73        O84 1.922       .   S
Zn73        O85 1.922       .   S
O75         C87 1.304       .   A
O76         C88 1.304       .   A
O77         C89 1.304       .   A
O78         C87 1.304       .   A
O79         C89 1.304       .   A
O80         C88 1.304       .   A
O81         C90 1.304       .   A
O82         C91 1.304       .   A
O83         C90 1.304       .   A
O84         C91 1.304       .   A
O85         C92 1.304       .   A
O86         C92 1.304       .   A
C87        N473 1.540       .   S
C88        N539 1.540       .   S
C89        C680 1.540       .   S
C90        N506 1.540   1_565   S
C91        C647 1.540       .   S
C92        N572 1.540   1_556   S
Zn93        O97 1.942       .   S
Zn93        O98 1.922       .   S
Zn93       O102 1.922       .   S
Zn93       O109 1.922       .   S
Zn94        O97 1.942       .   S
Zn94        O99 1.922       .   S
Zn94       O101 1.922       .   S
Zn94       O105 1.922       .   S
Zn95        O97 1.942       .   S
Zn95       O100 1.922       .   S
Zn95       O103 1.922       .   S
Zn95       O106 1.922       .   S
Zn96        O97 1.942       .   S
Zn96       O104 1.922       .   S
Zn96       O107 1.922       .   S
Zn96       O108 1.922       .   S
O98        C110 1.304       .   A
O99        C111 1.304       .   A
O100       C112 1.304       .   A
O101       C110 1.304       .   A
O102       C112 1.304       .   A
O103       C111 1.304       .   A
O104       C113 1.304       .   A
O105       C114 1.304       .   A
O106       C113 1.304       .   A
O107       C114 1.304       .   A
O108       C115 1.304       .   A
O109       C115 1.304       .   A
C110       N275 1.540   1_565   S
C111       C713 1.540       .   S
C112       N836 1.540       .   S
C113       N308 1.540   1_665   S
C114       C779 1.540       .   S
C115       C746 1.540       .   S
Zn116      O120 1.942       .   S
Zn116      O121 1.922       .   S
Zn116      O125 1.922       .   S
Zn116      O132 1.922       .   S
Zn117      O120 1.942       .   S
Zn117      O122 1.922       .   S
Zn117      O124 1.922       .   S
Zn117      O128 1.922       .   S
Zn118      O120 1.942       .   S
Zn118      O123 1.922       .   S
Zn118      O126 1.922       .   S
Zn118      O129 1.922       .   S
Zn119      O120 1.942       .   S
Zn119      O127 1.922       .   S
Zn119      O130 1.922       .   S
Zn119      O131 1.922       .   S
O121       C133 1.304       .   A
O122       C134 1.304       .   A
O123       C135 1.304       .   A
O124       C133 1.304       .   A
O125       C135 1.304       .   A
O126       C134 1.304       .   A
O127       C136 1.304       .   A
O128       C137 1.304       .   A
O129       C136 1.304       .   A
O130       C137 1.304       .   A
O131       C138 1.304       .   A
O132       C138 1.304       .   A
C133       N407 1.540   1_465   S
C134       N737 1.540       .   S
C135       C845 1.540       .   S
C136       N440 1.540   1_565   S
C137       N902 1.540       .   S
C138       N770 1.540   1_556   S
Zn139      O143 1.942       .   S
Zn139      O144 1.922       .   S
Zn139      O148 1.922       .   S
Zn139      O155 1.922       .   S
Zn140      O143 1.942       .   S
Zn140      O145 1.922       .   S
Zn140      O147 1.922       .   S
Zn140      O151 1.922       .   S
Zn141      O143 1.942       .   S
Zn141      O146 1.922       .   S
Zn141      O149 1.922       .   S
Zn141      O152 1.922       .   S
Zn142      O143 1.942       .   S
Zn142      O150 1.922       .   S
Zn142      O153 1.922       .   S
Zn142      O154 1.922       .   S
O144       C156 1.304       .   A
O145       C157 1.304       .   A
O146       C158 1.304       .   A
O147       C156 1.304       .   A
O148       C158 1.304       .   A
O149       C157 1.304       .   A
O150       C159 1.304       .   A
O151       C160 1.304       .   A
O152       C159 1.304       .   A
O153       C160 1.304       .   A
O154       C161 1.304       .   A
O155       C161 1.304       .   A
C156       C812 1.540       .   S
C157       N605 1.540   1_455   S
C158       C944 1.540       .   S
C159       N803 1.540   1_545   S
C160       C911 1.540       .   S
C161       N638 1.540       .   S
Zn162      O166 1.942       .   S
Zn162      O167 1.922       .   S
Zn162      O171 1.922       .   S
Zn162      O178 1.922       .   S
Zn163      O166 1.942       .   S
Zn163      O168 1.922       .   S
Zn163      O170 1.922       .   S
Zn163      O174 1.922       .   S
Zn164      O166 1.942       .   S
Zn164      O169 1.922       .   S
Zn164      O172 1.922       .   S
Zn164      O175 1.922       .   S
Zn165      O166 1.942       .   S
Zn165      O173 1.922       .   S
Zn165      O176 1.922       .   S
Zn165      O177 1.922       .   S
O167       C179 1.304       .   A
O168       C180 1.304       .   A
O169       C181 1.304       .   A
O170       C179 1.304       .   A
O171       C181 1.304       .   A
O172       C180 1.304       .   A
O173       C182 1.304       .   A
O174       C183 1.304       .   A
O175       C182 1.304       .   A
O176       C183 1.304       .   A
O177       C184 1.304       .   A
O178       C184 1.304       .   A
C179       N869 1.540   1_545   S
C180       N704 1.540       .   S
C181       N935 1.540       .   S
C182       C878 1.540       .   S
C183       N968 1.540   1_556   S
C184       N671 1.540   1_455   S
C944       C945 0.008       .   A
C944       C949 0.005       .   A
C945       C946 0.092   1_545   A
C945       C952 0.000       .   A
C946       C947 0.101   1_565   A
C946       C951 0.091   1_565   A
C947       C948 0.005       .   A
C947       C950 0.005       .   A
C948       C949 0.006       .   A
C948       H954 0.006       .   A
C949       H953 0.005       .   A
C950       O956 0.005       .   A
C950       C958 0.004       .   A
C950       H966 0.005       .   A
C951       H974 0.254   1_565   A
C951       H975 0.004       .   A
C951       H976 0.006       .   A
C952       N955 0.000       .   A
O956       C965 0.004       .   A
C957       C958 0.004       .   A
C957       H961 0.005       .   A
C957       H962 0.007       .   A
C957       C965 0.004       .   A
C958       H960 0.005       .   A
C958       H963 0.006       .   A
C959       C965 0.005       .   A
C959       C967 0.004       .   A
C959       N970 0.004       .   A
C959       H973 0.004       .   A
H964       C965 0.007       .   A
C967       N968 0.004       .   A
C967       H971 0.005       .   A
C967       H972 0.005       .   A
N968       N969 0.004       .   A
N969       N970 0.004       .   A
C911       C912 0.008       .   A
C911       C916 0.005       .   A
C912       C913 0.092   1_655   A
C912       C919 0.000       .   A
C913       C914 0.101   1_455   A
C913       C918 0.091   1_455   A
C914       C915 0.005       .   A
C914       C917 0.005       .   A
C915       C916 0.006       .   A
C915       H921 0.006       .   A
C916       H920 0.005       .   A
C917       O923 0.005       .   A
C917       C925 0.004       .   A
C917       H933 0.005       .   A
C918       H941 0.254   1_455   A
C918       H942 0.004       .   A
C918       H943 0.006       .   A
C919       N922 0.000       .   A
O923       C932 0.004       .   A
C924       C925 0.004       .   A
C924       H928 0.005       .   A
C924       H929 0.007       .   A
C924       C932 0.004       .   A
C925       H927 0.005       .   A
C925       H930 0.006       .   A
C926       C932 0.005       .   A
C926       C934 0.004       .   A
C926       N937 0.004       .   A
C926       H940 0.004       .   A
H931       C932 0.007       .   A
C934       N935 0.004       .   A
C934       H938 0.005       .   A
C934       H939 0.005       .   A
N935       N936 0.004       .   A
N936       N937 0.004       .   A
C878       C879 0.008       .   A
C878       C883 0.005       .   A
C879       C880 0.092   1_554   A
C879       C886 0.000       .   A
C880       C881 0.101   1_556   A
C880       C885 0.091   1_556   A
C881       C882 0.005       .   A
C881       C884 0.005       .   A
C882       C883 0.006       .   A
C882       H888 0.006       .   A
C883       H887 0.005       .   A
C884       O890 0.005       .   A
C884       C892 0.004       .   A
C884       H900 0.005       .   A
C885       H908 0.254   1_556   A
C885       H909 0.004       .   A
C885       H910 0.006       .   A
C886       N889 0.000       .   A
O890       C899 0.004       .   A
C891       C892 0.004       .   A
C891       H895 0.005       .   A
C891       H896 0.007       .   A
C891       C899 0.004       .   A
C892       H894 0.005       .   A
C892       H897 0.006       .   A
C893       C899 0.005       .   A
C893       C901 0.004       .   A
C893       N904 0.004       .   A
C893       H907 0.004       .   A
H898       C899 0.007       .   A
C901       N902 0.004       .   A
C901       H905 0.005       .   A
C901       H906 0.005       .   A
N902       N903 0.004       .   A
N903       N904 0.004       .   A
C845       C846 0.008       .   A
C845       C850 0.005       .   A
C846       C847 0.092   1_655   A
C846       C853 0.000       .   A
C847       C848 0.101   1_455   A
C847       C852 0.091   1_455   A
C848       C849 0.005       .   A
C848       C851 0.005       .   A
C849       C850 0.006       .   A
C849       H855 0.006       .   A
C850       H854 0.005       .   A
C851       O857 0.005       .   A
C851       C859 0.004       .   A
C851       H867 0.005       .   A
C852       H875 0.254   1_455   A
C852       H876 0.004       .   A
C852       H877 0.006       .   A
C853       N856 0.000       .   A
O857       C866 0.004       .   A
C858       C859 0.004       .   A
C858       H862 0.005       .   A
C858       H863 0.007       .   A
C858       C866 0.004       .   A
C859       H861 0.005       .   A
C859       H864 0.006       .   A
C860       C866 0.005       .   A
C860       C868 0.004       .   A
C860       N871 0.004       .   A
C860       H874 0.004       .   A
H865       C866 0.007       .   A
C868       N869 0.004       .   A
C868       H872 0.005       .   A
C868       H873 0.005       .   A
N869       N870 0.004       .   A
N870       N871 0.004       .   A
C812       C813 0.008       .   A
C812       C817 0.005       .   A
C813       C814 0.092       .   A
C813       C820 0.000       .   A
C814       C815 0.101       .   A
C814       C819 0.091       .   A
C815       C816 0.005       .   A
C815       C818 0.005       .   A
C816       C817 0.006       .   A
C816       H822 0.006       .   A
C817       H821 0.005       .   A
C818       O824 0.005       .   A
C818       C826 0.004       .   A
C818       H834 0.005       .   A
C819       H842 0.254   1_656   A
C819       H843 0.004       .   A
C819       H844 0.006       .   A
C820       N823 0.000       .   A
O824       C833 0.004       .   A
C825       C826 0.004       .   A
C825       H829 0.005       .   A
C825       H830 0.007       .   A
C825       C833 0.004       .   A
C826       H828 0.005       .   A
C826       H831 0.006       .   A
C827       C833 0.005       .   A
C827       C835 0.004       .   A
C827       N838 0.004       .   A
C827       H841 0.004       .   A
H832       C833 0.007       .   A
C835       N836 0.004       .   A
C835       H839 0.005       .   A
C835       H840 0.005       .   A
N836       N837 0.004       .   A
N837       N838 0.004       .   A
C779       C780 0.008       .   A
C779       C784 0.005       .   A
C780       C781 0.092   1_556   A
C780       C787 0.000       .   A
C781       C782 0.101   1_554   A
C781       C786 0.091   1_554   A
C782       C783 0.005       .   A
C782       C785 0.005       .   A
C783       C784 0.006       .   A
C783       H789 0.006       .   A
C784       H788 0.005       .   A
C785       O791 0.005       .   A
C785       C793 0.004       .   A
C785       H801 0.005       .   A
C786       H809 0.254   1_554   A
C786       H810 0.004       .   A
C786       H811 0.006       .   A
C787       N790 0.000       .   A
O791       C800 0.004       .   A
C792       C793 0.004       .   A
C792       H796 0.005       .   A
C792       H797 0.007       .   A
C792       C800 0.004       .   A
C793       H795 0.005       .   A
C793       H798 0.006       .   A
C794       C800 0.005       .   A
C794       C802 0.004       .   A
C794       N805 0.004       .   A
C794       H808 0.004       .   A
H799       C800 0.007       .   A
C802       N803 0.004       .   A
C802       H806 0.005       .   A
C802       H807 0.005       .   A
N803       N804 0.004       .   A
N804       N805 0.004       .   A
C746       C747 0.008       .   A
C746       C751 0.005       .   A
C747       C748 0.092   1_545   A
C747       C754 0.000       .   A
C748       C749 0.101   1_565   A
C748       C753 0.091   1_565   A
C749       C750 0.005       .   A
C749       C752 0.005       .   A
C750       C751 0.006       .   A
C750       H756 0.006       .   A
C751       H755 0.005       .   A
C752       O758 0.005       .   A
C752       C760 0.004       .   A
C752       H768 0.005       .   A
C753       H776 0.254   1_565   A
C753       H777 0.004       .   A
C753       H778 0.006       .   A
C754       N757 0.000       .   A
O758       C767 0.004       .   A
C759       C760 0.004       .   A
C759       H763 0.005       .   A
C759       H764 0.007       .   A
C759       C767 0.004       .   A
C760       H762 0.005       .   A
C760       H765 0.006       .   A
C761       C767 0.005       .   A
C761       C769 0.004       .   A
C761       N772 0.004       .   A
C761       H775 0.004       .   A
H766       C767 0.007       .   A
C769       N770 0.004       .   A
C769       H773 0.005       .   A
C769       H774 0.005       .   A
N770       N771 0.004       .   A
N771       N772 0.004       .   A
C713       C714 0.008       .   A
C713       C718 0.005       .   A
C714       C715 0.092   1_565   A
C714       C721 0.000       .   A
C715       C716 0.101   1_545   A
C715       C720 0.091   1_545   A
C716       C717 0.005       .   A
C716       C719 0.005       .   A
C717       C718 0.006       .   A
C717       H723 0.006       .   A
C718       H722 0.005       .   A
C719       O725 0.005       .   A
C719       C727 0.004       .   A
C719       H735 0.005       .   A
C720       H743 0.254   1_545   A
C720       H744 0.004       .   A
C720       H745 0.006       .   A
C721       N724 0.000       .   A
O725       C734 0.004       .   A
C726       C727 0.004       .   A
C726       H730 0.005       .   A
C726       H731 0.007       .   A
C726       C734 0.004       .   A
C727       H729 0.005       .   A
C727       H732 0.006       .   A
C728       C734 0.005       .   A
C728       C736 0.004       .   A
C728       N739 0.004       .   A
C728       H742 0.004       .   A
H733       C734 0.007       .   A
C736       N737 0.004       .   A
C736       H740 0.005       .   A
C736       H741 0.005       .   A
N737       N738 0.004       .   A
N738       N739 0.004       .   A
C680       C681 0.008       .   A
C680       C685 0.005       .   A
C681       C682 0.092       .   A
C681       C688 0.000       .   A
C682       C683 0.101       .   A
C682       C687 0.091       .   A
C683       C684 0.005       .   A
C683       C686 0.005       .   A
C684       C685 0.006       .   A
C684       H690 0.006       .   A
C685       H689 0.005       .   A
C686       O692 0.005       .   A
C686       C694 0.004       .   A
C686       H702 0.005       .   A
C687       H710 0.254   1_546   A
C687       H711 0.004       .   A
C687       H712 0.006       .   A
C688       N691 0.000       .   A
O692       C701 0.004       .   A
C693       C694 0.004       .   A
C693       H697 0.005       .   A
C693       H698 0.007       .   A
C693       C701 0.004       .   A
C694       H696 0.005       .   A
C694       H699 0.006       .   A
C695       C701 0.005       .   A
C695       C703 0.004       .   A
C695       N706 0.004       .   A
C695       H709 0.004       .   A
H700       C701 0.007       .   A
C703       N704 0.004       .   A
C703       H707 0.005       .   A
C703       H708 0.005       .   A
N704       N705 0.004       .   A
N705       N706 0.004       .   A
C647       C648 0.008       .   A
C647       C652 0.005       .   A
C648       C649 0.092       .   A
C648       C655 0.000       .   A
C649       C650 0.101       .   A
C649       C654 0.091       .   A
C650       C651 0.005       .   A
C650       C653 0.005       .   A
C651       C652 0.006       .   A
C651       H657 0.006       .   A
C652       H656 0.005       .   A
C653       O659 0.005       .   A
C653       C661 0.004       .   A
C653       H669 0.005       .   A
C654       H677 0.254   1_564   A
C654       H678 0.004       .   A
C654       H679 0.006       .   A
C655       N658 0.000       .   A
O659       C668 0.004       .   A
C660       C661 0.004       .   A
C660       H664 0.005       .   A
C660       H665 0.007       .   A
C660       C668 0.004       .   A
C661       H663 0.005       .   A
C661       H666 0.006       .   A
C662       C668 0.005       .   A
C662       C670 0.004       .   A
C662       N673 0.004       .   A
C662       H676 0.004       .   A
H667       C668 0.007       .   A
C670       N671 0.004       .   A
C670       H674 0.005       .   A
C670       H675 0.005       .   A
N671       N672 0.004       .   A
N672       N673 0.004       .   A
C614       C615 0.008       .   A
C614       C619 0.005       .   A
C615       C616 0.092   1_565   A
C615       C622 0.000       .   A
C616       C617 0.101   1_545   A
C616       C621 0.091   1_545   A
C617       C618 0.005       .   A
C617       C620 0.005       .   A
C618       C619 0.006       .   A
C618       H624 0.006       .   A
C619       H623 0.005       .   A
C620       O626 0.005       .   A
C620       C628 0.004       .   A
C620       H636 0.005       .   A
C621       H644 0.254   1_546   A
C621       H645 0.004       .   A
C621       H646 0.006       .   A
C622       N625 0.000       .   A
O626       C635 0.004       .   A
C627       C628 0.004       .   A
C627       H631 0.005       .   A
C627       H632 0.007       .   A
C627       C635 0.004       .   A
C628       H630 0.005       .   A
C628       H633 0.006       .   A
C629       C635 0.005       .   A
C629       C637 0.004       .   A
C629       N640 0.004       .   A
C629       H643 0.004       .   A
H634       C635 0.007       .   A
C637       N638 0.004       .   A
C637       H641 0.005       .   A
C637       H642 0.005       .   A
N638       N639 0.004       .   A
N639       N640 0.004       .   A
C581       C582 0.008       .   A
C581       C586 0.005       .   A
C582       C583 0.092       .   A
C582       C589 0.000       .   A
C583       C584 0.101       .   A
C583       C588 0.091       .   A
C584       C585 0.005       .   A
C584       C587 0.005       .   A
C585       C586 0.006       .   A
C585       H591 0.006       .   A
C586       H590 0.005       .   A
C587       O593 0.005       .   A
C587       C595 0.004       .   A
C587       H603 0.005       .   A
C588       H611 0.254   1_546   A
C588       H612 0.004       .   A
C588       H613 0.006       .   A
C589       N592 0.000       .   A
O593       C602 0.004       .   A
C594       C595 0.004       .   A
C594       H598 0.005       .   A
C594       H599 0.007       .   A
C594       C602 0.004       .   A
C595       H597 0.005       .   A
C595       H600 0.006       .   A
C596       C602 0.005       .   A
C596       C604 0.004       .   A
C596       N607 0.004       .   A
C596       H610 0.004       .   A
H601       C602 0.007       .   A
C604       N605 0.004       .   A
C604       H608 0.005       .   A
C604       H609 0.005       .   A
N605       N606 0.004       .   A
N606       N607 0.004       .   A
C548       C549 0.008       .   A
C548       C553 0.005       .   A
C549       C550 0.092   1_545   A
C549       C556 0.000       .   A
C550       C551 0.101   1_565   A
C550       C555 0.091   1_565   A
C551       C552 0.005       .   A
C551       C554 0.005       .   A
C552       C553 0.006       .   A
C552       H558 0.006       .   A
C553       H557 0.005       .   A
C554       O560 0.005       .   A
C554       C562 0.004       .   A
C554       H570 0.005       .   A
C555       H578 0.254   1_565   A
C555       H579 0.004       .   A
C555       H580 0.006       .   A
C556       N559 0.000       .   A
O560       C569 0.004       .   A
C561       C562 0.004       .   A
C561       H565 0.005       .   A
C561       H566 0.007       .   A
C561       C569 0.004       .   A
C562       H564 0.005       .   A
C562       H567 0.006       .   A
C563       C569 0.005       .   A
C563       C571 0.004       .   A
C563       N574 0.004       .   A
C563       H577 0.004       .   A
H568       C569 0.007       .   A
C571       N572 0.004       .   A
C571       H575 0.005       .   A
C571       H576 0.005       .   A
N572       N573 0.004       .   A
N573       N574 0.004       .   A
C515       C516 0.008       .   A
C515       C520 0.005       .   A
C516       C517 0.092   1_655   A
C516       C523 0.000       .   A
C517       C518 0.101   1_455   A
C517       C522 0.091   1_455   A
C518       C519 0.005       .   A
C518       C521 0.005       .   A
C519       C520 0.006       .   A
C519       H525 0.006       .   A
C520       H524 0.005       .   A
C521       O527 0.005       .   A
C521       C529 0.004       .   A
C521       H537 0.005       .   A
C522       H545 0.254   1_455   A
C522       H546 0.004       .   A
C522       H547 0.006       .   A
C523       N526 0.000       .   A
O527       C536 0.004       .   A
C528       C529 0.004       .   A
C528       H532 0.005       .   A
C528       H533 0.007       .   A
C528       C536 0.004       .   A
C529       H531 0.005       .   A
C529       H534 0.006       .   A
C530       C536 0.005       .   A
C530       C538 0.004       .   A
C530       N541 0.004       .   A
C530       H544 0.004       .   A
H535       C536 0.007       .   A
C538       N539 0.004       .   A
C538       H542 0.005       .   A
C538       H543 0.005       .   A
N539       N540 0.004       .   A
N540       N541 0.004       .   A
C482       C483 0.008       .   A
C482       C487 0.005       .   A
C483       C484 0.092   1_455   A
C483       C490 0.000       .   A
C484       C485 0.101   1_655   A
C484       C489 0.091   1_655   A
C485       C486 0.005       .   A
C485       C488 0.005       .   A
C486       C487 0.006       .   A
C486       H492 0.006       .   A
C487       H491 0.005       .   A
C488       O494 0.005       .   A
C488       C496 0.004       .   A
C488       H504 0.005       .   A
C489       H512 0.254   1_655   A
C489       H513 0.004       .   A
C489       H514 0.006       .   A
C490       N493 0.000       .   A
O494       C503 0.004       .   A
C495       C496 0.004       .   A
C495       H499 0.005       .   A
C495       H500 0.007       .   A
C495       C503 0.004       .   A
C496       H498 0.005       .   A
C496       H501 0.006       .   A
C497       C503 0.005       .   A
C497       C505 0.004       .   A
C497       N508 0.004       .   A
C497       H511 0.004       .   A
H502       C503 0.007       .   A
C505       N506 0.004       .   A
C505       H509 0.005       .   A
C505       H510 0.005       .   A
N506       N507 0.004       .   A
N507       N508 0.004       .   A
C449       C450 0.008       .   A
C449       C454 0.005       .   A
C450       C451 0.092   1_655   A
C450       C457 0.000       .   A
C451       C452 0.101   1_455   A
C451       C456 0.091   1_455   A
C452       C453 0.005       .   A
C452       C455 0.005       .   A
C453       C454 0.006       .   A
C453       H459 0.006       .   A
C454       H458 0.005       .   A
C455       O461 0.005       .   A
C455       C463 0.004       .   A
C455       H471 0.005       .   A
C456       H479 0.254   1_455   A
C456       H480 0.004       .   A
C456       H481 0.006       .   A
C457       N460 0.000       .   A
O461       C470 0.004       .   A
C462       C463 0.004       .   A
C462       H466 0.005       .   A
C462       H467 0.007       .   A
C462       C470 0.004       .   A
C463       H465 0.005       .   A
C463       H468 0.006       .   A
C464       C470 0.005       .   A
C464       C472 0.004       .   A
C464       N475 0.004       .   A
C464       H478 0.004       .   A
H469       C470 0.007       .   A
C472       N473 0.004       .   A
C472       H476 0.005       .   A
C472       H477 0.005       .   A
N473       N474 0.004       .   A
N474       N475 0.004       .   A
C416       C417 0.008       .   A
C416       C421 0.005       .   A
C417       C418 0.092   1_554   A
C417       C424 0.000       .   A
C418       C419 0.101   1_556   A
C418       C423 0.091   1_556   A
C419       C420 0.005       .   A
C419       C422 0.005       .   A
C420       C421 0.006       .   A
C420       H426 0.006       .   A
C421       H425 0.005       .   A
C422       O428 0.005       .   A
C422       C430 0.004       .   A
C422       H438 0.005       .   A
C423       H446 0.254   1_546   A
C423       H447 0.004       .   A
C423       H448 0.006       .   A
C424       N427 0.000       .   A
O428       C437 0.004       .   A
C429       C430 0.004       .   A
C429       H433 0.005       .   A
C429       H434 0.007       .   A
C429       C437 0.004       .   A
C430       H432 0.005       .   A
C430       H435 0.006       .   A
C431       C437 0.005       .   A
C431       C439 0.004       .   A
C431       N442 0.004       .   A
C431       H445 0.004       .   A
H436       C437 0.007       .   A
C439       N440 0.004       .   A
C439       H443 0.005       .   A
C439       H444 0.005       .   A
N440       N441 0.004       .   A
N441       N442 0.004       .   A
C383       C384 0.008       .   A
C383       C388 0.005       .   A
C384       C385 0.092   1_554   A
C384       C391 0.000       .   A
C385       C386 0.101   1_556   A
C385       C390 0.091   1_556   A
C386       C387 0.005       .   A
C386       C389 0.005       .   A
C387       C388 0.006       .   A
C387       H393 0.006       .   A
C388       H392 0.005       .   A
C389       O395 0.005       .   A
C389       C397 0.004       .   A
C389       H405 0.005       .   A
C390       H413 0.254   1_556   A
C390       H414 0.004       .   A
C390       H415 0.006       .   A
C391       N394 0.000       .   A
O395       C404 0.004       .   A
C396       C397 0.004       .   A
C396       H400 0.005       .   A
C396       H401 0.007       .   A
C396       C404 0.004       .   A
C397       H399 0.005       .   A
C397       H402 0.006       .   A
C398       C404 0.005       .   A
C398       C406 0.004       .   A
C398       N409 0.004       .   A
C398       H412 0.004       .   A
H403       C404 0.007       .   A
C406       N407 0.004       .   A
C406       H410 0.005       .   A
C406       H411 0.005       .   A
N407       N408 0.004       .   A
N408       N409 0.004       .   A
C350       C351 0.008       .   A
C350       C355 0.005       .   A
C351       C352 0.092   1_655   A
C351       C358 0.000       .   A
C352       C353 0.101   1_455   A
C352       C357 0.091   1_455   A
C353       C354 0.005       .   A
C353       C356 0.005       .   A
C354       C355 0.006       .   A
C354       H360 0.006       .   A
C355       H359 0.005       .   A
C356       O362 0.005       .   A
C356       C364 0.004       .   A
C356       H372 0.005       .   A
C357       H380 0.254   1_455   A
C357       H381 0.004       .   A
C357       H382 0.006       .   A
C358       N361 0.000       .   A
O362       C371 0.004       .   A
C363       C364 0.004       .   A
C363       H367 0.005       .   A
C363       H368 0.007       .   A
C363       C371 0.004       .   A
C364       H366 0.005       .   A
C364       H369 0.006       .   A
C365       C371 0.005       .   A
C365       C373 0.004       .   A
C365       N376 0.004       .   A
C365       H379 0.004       .   A
H370       C371 0.007       .   A
C373       N374 0.004       .   A
C373       H377 0.005       .   A
C373       H378 0.005       .   A
N374       N375 0.004       .   A
N375       N376 0.004       .   A
C317       C318 0.008       .   A
C317       C322 0.005       .   A
C318       C319 0.092   1_455   A
C318       C325 0.000       .   A
C319       C320 0.101   1_655   A
C319       C324 0.091   1_655   A
C320       C321 0.005       .   A
C320       C323 0.005       .   A
C321       C322 0.006       .   A
C321       H327 0.006       .   A
C322       H326 0.005       .   A
C323       O329 0.005       .   A
C323       C331 0.004       .   A
C323       H339 0.005       .   A
C324       H347 0.254   1_655   A
C324       H348 0.004       .   A
C324       H349 0.006       .   A
C325       N328 0.000       .   A
O329       C338 0.004       .   A
C330       C331 0.004       .   A
C330       H334 0.005       .   A
C330       H335 0.007       .   A
C330       C338 0.004       .   A
C331       H333 0.005       .   A
C331       H336 0.006       .   A
C332       C338 0.005       .   A
C332       C340 0.004       .   A
C332       N343 0.004       .   A
C332       H346 0.004       .   A
H337       C338 0.007       .   A
C340       N341 0.004       .   A
C340       H344 0.005       .   A
C340       H345 0.005       .   A
N341       N342 0.004       .   A
N342       N343 0.004       .   A
C284       C285 0.008       .   A
C284       C289 0.005       .   A
C285       C286 0.092       .   A
C285       C292 0.000       .   A
C286       C287 0.101   1_556   A
C286       C291 0.091       .   A
C287       C288 0.005       .   A
C287       C290 0.005       .   A
C288       C289 0.006       .   A
C288       H294 0.006       .   A
C289       H293 0.005       .   A
C290       O296 0.005       .   A
C290       C298 0.004       .   A
C290       H306 0.005       .   A
C291       H314 0.254   1_546   A
C291       H315 0.004       .   A
C291       H316 0.006       .   A
C292       N295 0.000       .   A
O296       C305 0.004       .   A
C297       C298 0.004       .   A
C297       H301 0.005       .   A
C297       H302 0.007       .   A
C297       C305 0.004       .   A
C298       H300 0.005       .   A
C298       H303 0.006       .   A
C299       C305 0.005       .   A
C299       C307 0.004       .   A
C299       N310 0.004       .   A
C299       H313 0.004       .   A
H304       C305 0.007       .   A
C307       N308 0.004       .   A
C307       H311 0.005       .   A
C307       H312 0.005       .   A
N308       N309 0.004       .   A
N309       N310 0.004       .   A
C251       C252 0.008       .   A
C251       C256 0.005       .   A
C252       C253 0.092   1_554   A
C252       C259 0.000       .   A
C253       C254 0.101   1_556   A
C253       C258 0.091   1_556   A
C254       C255 0.005       .   A
C254       C257 0.005       .   A
C255       C256 0.006       .   A
C255       H261 0.006       .   A
C256       H260 0.005       .   A
C257       O263 0.005       .   A
C257       C265 0.004       .   A
C257       H273 0.005       .   A
C258       H281 0.254   1_546   A
C258       H282 0.004       .   A
C258       H283 0.006       .   A
C259       N262 0.000       .   A
O263       C272 0.004       .   A
C264       C265 0.004       .   A
C264       H268 0.005       .   A
C264       H269 0.007       .   A
C264       C272 0.004       .   A
C265       H267 0.005       .   A
C265       H270 0.006       .   A
C266       C272 0.005       .   A
C266       C274 0.004       .   A
C266       N277 0.004       .   A
C266       H280 0.004       .   A
H271       C272 0.007       .   A
C274       N275 0.004       .   A
C274       H278 0.005       .   A
C274       H279 0.005       .   A
N275       N276 0.004       .   A
N276       N277 0.004       .   A
C218       C219 0.008       .   A
C218       C223 0.005       .   A
C219       C220 0.092   1_455   A
C219       C226 0.000       .   A
C220       C221 0.101   1_655   A
C220       C225 0.091   1_655   A
C221       C222 0.005       .   A
C221       C224 0.005       .   A
C222       C223 0.006       .   A
C222       H228 0.006       .   A
C223       H227 0.005       .   A
C224       O230 0.005       .   A
C224       C232 0.004       .   A
C224       H240 0.005       .   A
C225       H248 0.254   1_655   A
C225       H249 0.004       .   A
C225       H250 0.006       .   A
C226       N229 0.000       .   A
O230       C239 0.004       .   A
C231       C232 0.004       .   A
C231       H235 0.005       .   A
C231       H236 0.007       .   A
C231       C239 0.004       .   A
C232       H234 0.005       .   A
C232       H237 0.006       .   A
C233       C239 0.005       .   A
C233       C241 0.004       .   A
C233       N244 0.004       .   A
C233       H247 0.004       .   A
H238       C239 0.007       .   A
C241       N242 0.004       .   A
C241       H245 0.005       .   A
C241       H246 0.005       .   A
N242       N243 0.004       .   A
N243       N244 0.004       .   A
C185       C186 0.008       .   A
C185       C190 0.005       .   A
C186       C187 0.092       .   A
C186       C193 0.000       .   A
C187       C188 0.101   1_545   A
C187       C192 0.091       .   A
C188       C189 0.005       .   A
C188       C191 0.005       .   A
C189       C190 0.006       .   A
C189       H195 0.006       .   A
C190       H194 0.005       .   A
C191       O197 0.005       .   A
C191       C199 0.004       .   A
C191       H207 0.005       .   A
C192       H215 0.254   1_645   A
C192       H216 0.004       .   A
C192       H217 0.006       .   A
C193       N196 0.000       .   A
O197       C206 0.004       .   A
C198       C199 0.004       .   A
C198       H202 0.005       .   A
C198       H203 0.007       .   A
C198       C206 0.004       .   A
C199       H201 0.005       .   A
C199       H204 0.006       .   A
C200       C206 0.005       .   A
C200       C208 0.004       .   A
C200       N211 0.004       .   A
C200       H214 0.004       .   A
H205       C206 0.007       .   A
C208       N209 0.004       .   A
C208       H212 0.005       .   A
C208       H213 0.005       .   A
N209       N210 0.004       .   A
N210       N211 0.004       .   A
