data_pcu_v1-6c_Zn_1_Ch_1-99_fer_tobacco
_audit_creation_date              2021-02-03
_audit_creation_method            'tobacco_3.0'
_symmetry_space_group_name_H-M    'P1'
_symmetry_Int_Tables_number       1
_symmetry_cell_setting            triclinic
loop_
_symmetry_equiv_pos_as_xyz
  x,y,z
_cell_length_a                    38.3660360645807
_cell_length_b                    38.3660360645807
_cell_length_c                    38.3660360645807
_cell_angle_alpha                 90.0
_cell_angle_beta                  90.0
_cell_angle_gamma                 90.0
loop_
_atom_site_label
_atom_site_type_symbol
_atom_site_fract_x
_atom_site_fract_y
_atom_site_fract_z
_atom_site_charge
Zn1       Zn   -0.0292237644   -0.0292237644    0.0292237644          1.4972
Zn2       Zn    0.0292237644    0.0292237644    0.0292237644          1.4936
Zn3       Zn    0.0292237644   -0.0292237644   -0.0292237644          1.4911
Zn4       Zn   -0.0292237644    0.0292237644   -0.0292237644          1.4948
O5         O    0.0000000000    0.0000000000    0.0000000000          -2.205
O6         O   -0.0214773295   -0.0214773295    0.0781055409         -1.1113
O7         O    0.0781055409    0.0214773295    0.0214773295         -1.1095
O8         O    0.0214773295   -0.0781055409   -0.0214773295         -1.1046
O9         O    0.0214773295    0.0214773295    0.0781055409         -1.1114
O10        O   -0.0214773295   -0.0781055409    0.0214773295         -1.1074
O11        O    0.0781055409   -0.0214773295   -0.0214773295         -1.1133
O12        O   -0.0214773295    0.0214773295   -0.0781055409         -1.1072
O13        O    0.0214773295    0.0781055409    0.0214773295         -1.1147
O14        O    0.0214773295   -0.0214773295   -0.0781055409         -1.1086
O15        O   -0.0214773295    0.0781055409   -0.0214773295         -1.1133
O16        O   -0.0781055409    0.0214773295   -0.0214773295         -1.1124
O17        O   -0.0781055409   -0.0214773295    0.0214773295         -1.1103
C18        C   -0.0000000000   -0.0000000000    0.0933846800          0.4076
C19        C    0.0933846800   -0.0000000000   -0.0000000000          0.4125
C20        C   -0.0000000000   -0.0933846800    0.0000000000          0.4021
C21        C    0.0000000000    0.0000000000   -0.0933846800          0.4059
C22        C    0.0000000000    0.0933846800   -0.0000000000          0.4172
C23        C   -0.0933846800    0.0000000000    0.0000000000          0.4077
Zn24      Zn    0.9707762356    0.0292237644    0.4707762356          1.4972
Zn25      Zn    1.0292237644   -0.0292237644    0.4707762356          1.4936
Zn26      Zn    1.0292237644    0.0292237644    0.5292237644          1.4911
Zn27      Zn    0.9707762356   -0.0292237644    0.5292237644          1.4948
O28        O    1.0000000000    0.0000000000    0.5000000000          -2.205
O29        O    0.9785226705    0.0214773295    0.4218944591         -1.1113
O30        O    1.0781055409   -0.0214773295    0.4785226705         -1.1095
O31        O    1.0214773295    0.0781055409    0.5214773295         -1.1046
O32        O    1.0214773295   -0.0214773295    0.4218944591         -1.1114
O33        O    0.9785226705    0.0781055409    0.4785226705         -1.1074
O34        O    1.0781055409    0.0214773295    0.5214773295         -1.1133
O35        O    0.9785226705   -0.0214773295    0.5781055409         -1.1072
O36        O    1.0214773295   -0.0781055409    0.4785226705         -1.1147
O37        O    1.0214773295    0.0214773295    0.5781055409         -1.1086
O38        O    0.9785226705   -0.0781055409    0.5214773295         -1.1133
O39        O    0.9218944591   -0.0214773295    0.5214773295         -1.1124
O40        O    0.9218944591    0.0214773295    0.4785226705         -1.1103
C41        C    1.0000000000    0.0000000000    0.4066153200          0.4076
C42        C    1.0933846800    0.0000000000    0.5000000000          0.4125
C43        C    1.0000000000    0.0933846800    0.5000000000          0.4021
C44        C    1.0000000000    0.0000000000    0.5933846800          0.4059
C45        C    1.0000000000   -0.0933846800    0.5000000000          0.4172
C46        C    0.9066153200    0.0000000000    0.5000000000          0.4077
Zn47      Zn    1.0292237644    0.4707762356    0.0292237644          1.4972
Zn48      Zn    0.9707762356    0.4707762356   -0.0292237644          1.4936
Zn49      Zn    0.9707762356    0.5292237644    0.0292237644          1.4911
Zn50      Zn    1.0292237644    0.5292237644   -0.0292237644          1.4948
O51        O    1.0000000000    0.5000000000    0.0000000000          -2.205
O52        O    1.0214773295    0.4218944591    0.0214773295         -1.1113
O53        O    0.9218944591    0.4785226705   -0.0214773295         -1.1095
O54        O    0.9785226705    0.5214773295    0.0781055409         -1.1046
O55        O    0.9785226705    0.4218944591   -0.0214773295         -1.1114
O56        O    1.0214773295    0.4785226705    0.0781055409         -1.1074
O57        O    0.9218944591    0.5214773295    0.0214773295         -1.1133
O58        O    1.0214773295    0.5781055409   -0.0214773295         -1.1072
O59        O    0.9785226705    0.4785226705   -0.0781055409         -1.1147
O60        O    0.9785226705    0.5781055409    0.0214773295         -1.1086
O61        O    1.0214773295    0.5214773295   -0.0781055409         -1.1133
O62        O    1.0781055409    0.5214773295   -0.0214773295         -1.1124
O63        O    1.0781055409    0.4785226705    0.0214773295         -1.1103
C64        C    1.0000000000    0.4066153200    0.0000000000          0.4076
C65        C    0.9066153200    0.5000000000    0.0000000000          0.4125
C66        C    1.0000000000    0.5000000000    0.0933846800          0.4021
C67        C    1.0000000000    0.5933846800    0.0000000000          0.4059
C68        C    1.0000000000    0.5000000000   -0.0933846800          0.4172
C69        C    1.0933846800    0.5000000000    0.0000000000          0.4077
Zn70      Zn    0.9707762356    0.4707762356    0.5292237644          1.4972
Zn71      Zn    1.0292237644    0.4707762356    0.4707762356          1.4936
Zn72      Zn    0.9707762356    0.5292237644    0.4707762356          1.4911
Zn73      Zn    1.0292237644    0.5292237644    0.5292237644          1.4948
O74        O    1.0000000000    0.5000000000    0.5000000000          -2.205
O75        O    0.9785226705    0.4218944591    0.5214773295         -1.1113
O76        O    1.0214773295    0.4785226705    0.4218944591         -1.1095
O77        O    0.9218944591    0.5214773295    0.4785226705         -1.1046
O78        O    1.0214773295    0.4218944591    0.4785226705         -1.1114
O79        O    0.9218944591    0.4785226705    0.5214773295         -1.1074
O80        O    0.9785226705    0.5214773295    0.4218944591         -1.1133
O81        O    1.0214773295    0.5781055409    0.5214773295         -1.1072
O82        O    1.0781055409    0.4785226705    0.4785226705         -1.1147
O83        O    0.9785226705    0.5781055409    0.4785226705         -1.1086
O84        O    1.0781055409    0.5214773295    0.5214773295         -1.1133
O85        O    1.0214773295    0.5214773295    0.5781055409         -1.1124
O86        O    0.9785226705    0.4785226705    0.5781055409         -1.1103
C87        C    1.0000000000    0.4066153200    0.5000000000          0.4076
C88        C    1.0000000000    0.5000000000    0.4066153200          0.4125
C89        C    0.9066153200    0.5000000000    0.5000000000          0.4021
C90        C    1.0000000000    0.5933846800    0.5000000000          0.4059
C91        C    1.0933846800    0.5000000000    0.5000000000          0.4172
C92        C    1.0000000000    0.5000000000    0.5933846800          0.4077
Zn93      Zn    0.4707762356    1.0292237644   -0.0292237644          1.4972
Zn94      Zn    0.4707762356    0.9707762356    0.0292237644          1.4936
Zn95      Zn    0.5292237644    0.9707762356   -0.0292237644          1.4911
Zn96      Zn    0.5292237644    1.0292237644    0.0292237644          1.4948
O97        O    0.5000000000    1.0000000000    0.0000000000          -2.205
O98        O    0.4218944591    1.0214773295   -0.0214773295         -1.1113
O99        O    0.4785226705    0.9218944591    0.0214773295         -1.1095
O100       O    0.5214773295    0.9785226705   -0.0781055409         -1.1046
O101       O    0.4218944591    0.9785226705    0.0214773295         -1.1114
O102       O    0.4785226705    1.0214773295   -0.0781055409         -1.1074
O103       O    0.5214773295    0.9218944591   -0.0214773295         -1.1133
O104       O    0.5781055409    1.0214773295    0.0214773295         -1.1072
O105       O    0.4785226705    0.9785226705    0.0781055409         -1.1147
O106       O    0.5781055409    0.9785226705   -0.0214773295         -1.1086
O107       O    0.5214773295    1.0214773295    0.0781055409         -1.1133
O108       O    0.5214773295    1.0781055409    0.0214773295         -1.1124
O109       O    0.4785226705    1.0781055409   -0.0214773295         -1.1103
C110       C    0.4066153200    1.0000000000    0.0000000000          0.4076
C111       C    0.5000000000    0.9066153200    0.0000000000          0.4125
C112       C    0.5000000000    1.0000000000   -0.0933846800          0.4021
C113       C    0.5933846800    1.0000000000    0.0000000000          0.4059
C114       C    0.5000000000    1.0000000000    0.0933846800          0.4172
C115       C    0.5000000000    1.0933846800    0.0000000000          0.4077
Zn116     Zn    0.5292237644    0.9707762356    0.5292237644          1.4972
Zn117     Zn    0.4707762356    0.9707762356    0.4707762356          1.4936
Zn118     Zn    0.4707762356    1.0292237644    0.5292237644          1.4911
Zn119     Zn    0.5292237644    1.0292237644    0.4707762356          1.4948
O120       O    0.5000000000    1.0000000000    0.5000000000          -2.205
O121       O    0.5214773295    0.9218944591    0.5214773295         -1.1113
O122       O    0.4218944591    0.9785226705    0.4785226705         -1.1095
O123       O    0.4785226705    1.0214773295    0.5781055409         -1.1046
O124       O    0.4785226705    0.9218944591    0.4785226705         -1.1114
O125       O    0.5214773295    0.9785226705    0.5781055409         -1.1074
O126       O    0.4218944591    1.0214773295    0.5214773295         -1.1133
O127       O    0.5214773295    1.0781055409    0.4785226705         -1.1072
O128       O    0.4785226705    0.9785226705    0.4218944591         -1.1147
O129       O    0.4785226705    1.0781055409    0.5214773295         -1.1086
O130       O    0.5214773295    1.0214773295    0.4218944591         -1.1133
O131       O    0.5781055409    1.0214773295    0.4785226705         -1.1124
O132       O    0.5781055409    0.9785226705    0.5214773295         -1.1103
C133       C    0.5000000000    0.9066153200    0.5000000000          0.4076
C134       C    0.4066153200    1.0000000000    0.5000000000          0.4125
C135       C    0.5000000000    1.0000000000    0.5933846800          0.4021
C136       C    0.5000000000    1.0933846800    0.5000000000          0.4059
C137       C    0.5000000000    1.0000000000    0.4066153200          0.4172
C138       C    0.5933846800    1.0000000000    0.5000000000          0.4077
Zn139     Zn    0.5292237644    0.4707762356    0.0292237644          1.4972
Zn140     Zn    0.4707762356    0.4707762356   -0.0292237644          1.4936
Zn141     Zn    0.4707762356    0.5292237644    0.0292237644          1.4911
Zn142     Zn    0.5292237644    0.5292237644   -0.0292237644          1.4948
O143       O    0.5000000000    0.5000000000    0.0000000000          -2.205
O144       O    0.5214773295    0.4218944591    0.0214773295         -1.1113
O145       O    0.4218944591    0.4785226705   -0.0214773295         -1.1095
O146       O    0.4785226705    0.5214773295    0.0781055409         -1.1046
O147       O    0.4785226705    0.4218944591   -0.0214773295         -1.1114
O148       O    0.5214773295    0.4785226705    0.0781055409         -1.1074
O149       O    0.4218944591    0.5214773295    0.0214773295         -1.1133
O150       O    0.5214773295    0.5781055409   -0.0214773295         -1.1072
O151       O    0.4785226705    0.4785226705   -0.0781055409         -1.1147
O152       O    0.4785226705    0.5781055409    0.0214773295         -1.1086
O153       O    0.5214773295    0.5214773295   -0.0781055409         -1.1133
O154       O    0.5781055409    0.5214773295   -0.0214773295         -1.1124
O155       O    0.5781055409    0.4785226705    0.0214773295         -1.1103
C156       C    0.5000000000    0.4066153200    0.0000000000          0.4076
C157       C    0.4066153200    0.5000000000    0.0000000000          0.4125
C158       C    0.5000000000    0.5000000000    0.0933846800          0.4021
C159       C    0.5000000000    0.5933846800    0.0000000000          0.4059
C160       C    0.5000000000    0.5000000000   -0.0933846800          0.4172
C161       C    0.5933846800    0.5000000000    0.0000000000          0.4077
Zn162     Zn    0.4707762356    0.5292237644    0.4707762356          1.4972
Zn163     Zn    0.4707762356    0.4707762356    0.5292237644          1.4936
Zn164     Zn    0.5292237644    0.4707762356    0.4707762356          1.4911
Zn165     Zn    0.5292237644    0.5292237644    0.5292237644          1.4948
O166       O    0.5000000000    0.5000000000    0.5000000000          -2.205
O167       O    0.4218944591    0.5214773295    0.4785226705         -1.1113
O168       O    0.4785226705    0.4218944591    0.5214773295         -1.1095
O169       O    0.5214773295    0.4785226705    0.4218944591         -1.1046
O170       O    0.4218944591    0.4785226705    0.5214773295         -1.1114
O171       O    0.4785226705    0.5214773295    0.4218944591         -1.1074
O172       O    0.5214773295    0.4218944591    0.4785226705         -1.1133
O173       O    0.5781055409    0.5214773295    0.5214773295         -1.1072
O174       O    0.4785226705    0.4785226705    0.5781055409         -1.1147
O175       O    0.5781055409    0.4785226705    0.4785226705         -1.1086
O176       O    0.5214773295    0.5214773295    0.5781055409         -1.1133
O177       O    0.5214773295    0.5781055409    0.5214773295         -1.1124
O178       O    0.4785226705    0.5781055409    0.4785226705         -1.1103
C179       C    0.4066153200    0.5000000000    0.5000000000          0.4076
C180       C    0.5000000000    0.4066153200    0.5000000000          0.4125
C181       C    0.5000000000    0.5000000000    0.4066153200          0.4021
C182       C    0.5933846800    0.5000000000    0.5000000000          0.4059
C183       C    0.5000000000    0.5000000000    0.5933846800          0.4172
C184       C    0.5000000000    0.5933846800    0.5000000000          0.4077
C852       C    0.5000000000    0.5000000000   -0.3664756507          -0.353
C853       C    0.5297132436    0.4902988837   -0.3505278174         -0.3625
C854       C    0.5296874906    0.4843526269   -0.3162273113          0.6297
C855       C    0.5014956047    0.4884817875   -0.2959717321          0.6317
C856       C    0.4717089973    0.4976404690   -0.3121744410         -0.3593
C857       C    0.4712710512    0.5030979405   -0.3467557405          -0.352
C858       C    0.5048998700    0.4793962000   -0.2567411644          0.6208
H859       H    0.5538487095    0.4751482717   -0.3048353012          0.6209
C860       C    0.5906226447    0.5033205067   -0.3580738770         -0.3499
H861       H    0.4468773844    0.5107168951   -0.3590217746         -0.3445
Cl862     Cl    0.4327106900    0.5018919862   -0.2901414460         -0.3575
O863       O    0.4848633306    0.4994135448   -0.2311133329         -0.3635
C864       C    0.5373914121    0.4882650047   -0.2024462609           0.625
C865       C    0.5421064776    0.4833537455   -0.2416968990          0.6235
C866       C    0.4869250571    0.5085726407   -0.1651447847         -0.3601
H867       H    0.5580508318    0.4604398859   -0.2471711763          0.6037
H868       H    0.5500715598    0.4675017136   -0.1876592505          0.6056
H869       H    0.5483157211    0.5133624967   -0.1944315658         -0.3532
H870       H    0.5549266487    0.5064626242   -0.2524403079          -0.355
H871       H    0.4892415019    0.4607165959   -0.1937957728          0.5995
C872       C    0.4977564881    0.4877341921   -0.1972030054          0.6238
H873       H    0.4970055540    0.4521601933   -0.2536855154          0.5963
C874       C    0.5000000000    0.5000000000   -0.1335243493          0.6301
H875       H    0.5181099157    0.4782201992   -0.1315221593          0.6108
H876       H    0.4687639760    0.5300488301   -0.1686306920         -0.3409
H877       H    0.5993371472    0.4947319869   -0.3323467023         -0.3593
H878       H    0.5846748696    0.5311697603   -0.3575565471         -0.3252
H879       H    0.6113662733    0.4984114962   -0.3769536980         -0.3527
O880       O    0.5598997835    0.4840197492   -0.3686695956         -0.3665
C823       C    0.5000000000    0.5000000000    0.1335243493          -0.353
C824       C    0.5297132436    0.4902988837    0.1494721826         -0.3625
C825       C    0.5296874906    0.4843526269    0.1837726887          0.6297
C826       C    0.5014956047    0.4884817875    0.2040282679          0.6317
C827       C    0.4717089973    0.4976404690    0.1878255590         -0.3593
C828       C    0.4712710512    0.5030979405    0.1532442595          -0.352
C829       C    0.5048998700    0.4793962000    0.2432588356          0.6208
H830       H    0.5538487095    0.4751482717    0.1951646988          0.6209
C831       C    0.5906226447    0.5033205067    0.1419261230         -0.3499
H832       H    0.4468773844    0.5107168951    0.1409782254         -0.3445
Cl833     Cl    0.4327106900    0.5018919862    0.2098585540         -0.3575
O834       O    0.4848633306    0.4994135448    0.2688866671         -0.3635
C835       C    0.5373914121    0.4882650047    0.2975537391           0.625
C836       C    0.5421064776    0.4833537455    0.2583031010          0.6235
C837       C    0.4869250571    0.5085726407    0.3348552153         -0.3601
H838       H    0.5580508318    0.4604398859    0.2528288237          0.6037
H839       H    0.5500715598    0.4675017136    0.3123407495          0.6056
H840       H    0.5483157211    0.5133624967    0.3055684342         -0.3532
H841       H    0.5549266487    0.5064626242    0.2475596921          -0.355
H842       H    0.4892415019    0.4607165959    0.3062042272          0.5995
C843       C    0.4977564881    0.4877341921    0.3027969946          0.6238
H844       H    0.4970055540    0.4521601933    0.2463144846          0.5963
C845       C    0.5000000000    0.5000000000    0.3664756507          0.6301
H846       H    0.5181099157    0.4782201992    0.3684778407          0.6108
H847       H    0.4687639760    0.5300488301    0.3313693080         -0.3409
H848       H    0.5993371472    0.4947319869    0.1676532977         -0.3593
H849       H    0.5846748696    0.5311697603    0.1424434529         -0.3252
H850       H    0.6113662733    0.4984114962    0.1230463020         -0.3527
O851       O    0.5598997835    0.4840197492    0.1313304044         -0.3665
C794       C    0.5000000000    0.6335243493    0.5000000000          -0.353
C795       C    0.4835860768    0.6494721826    0.4733997814         -0.3625
C796       C    0.4874470825    0.6837726887    0.4688774737          0.6297
C797       C    0.5062992559    0.7040282679    0.4902416483          0.6317
C798       C    0.5231195986    0.6878255590    0.5164752050         -0.3593
C799       C    0.5199283082    0.6532442595    0.5209239640          -0.352
C800       C    0.5095700750    0.7432588356    0.4811071716          0.6208
H801       H    0.4749502623    0.6951646988    0.4462431162          0.6209
C802       C    0.4286801107    0.6419261230    0.4439914034         -0.3499
H803       H    0.5336267487    0.6409782254    0.5424983047         -0.3445
Cl804     Cl    0.5501415726    0.7098585540    0.5449138458         -0.3575
O805       O    0.5119331007    0.7688866671    0.5093307984         -0.3635
C806       C    0.4790390239    0.7975537391    0.4668870827           0.625
C807       C    0.4786126101    0.7583031010    0.4600921963          0.6235
C808       C    0.5044424496    0.8348552153    0.5149902949         -0.3601
H809       H    0.4812444447    0.7528288237    0.4323011755          0.6037
H810       H    0.4827732278    0.8123407495    0.4428463646          0.6056
H811       H    0.4544869347    0.8055684342    0.4789874772         -0.3532
H812       H    0.4538980224    0.7475596921    0.4694498787          -0.355
H813       H    0.5335897775    0.8062042272    0.4769639854          0.5995
C814       C    0.5096363833    0.8027969946    0.4920864985          0.6238
H815       H    0.5331907897    0.7463144846    0.4654169797          0.5963
C816       C    0.5000000000    0.8664756507    0.5000000000          0.6301
H817       H    0.5002461862    0.8684778407    0.4716756613          0.6108
H818       H    0.5044314557    0.8313693080    0.5431159320         -0.3409
H819       H    0.4275763655    0.6676532977    0.4318058804         -0.3593
H820       H    0.4152292878    0.6424434529    0.4690918481         -0.3252
H821       H    0.4160171926    0.6230463020    0.4268436042         -0.3527
O822       O    0.4646002351    0.6313304044    0.4491059029         -0.3665
C765       C    0.5000000000    1.1335243493    0.5000000000          -0.353
C766       C    0.4702867564    1.1494721826    0.4902988837         -0.3625
C767       C    0.4703125094    1.1837726887    0.4843526269          0.6297
C768       C    0.4985043953    1.2040282679    0.4884817875          0.6317
C769       C    0.5282910027    1.1878255590    0.4976404690         -0.3593
C770       C    0.5287289488    1.1532442595    0.5030979405          -0.352
C771       C    0.4951001300    1.2432588356    0.4793962000          0.6208
H772       H    0.4461512905    1.1951646988    0.4751482717          0.6209
C773       C    0.4093773553    1.1419261230    0.5033205067         -0.3499
H774       H    0.5531226156    1.1409782254    0.5107168951         -0.3445
Cl775     Cl    0.5672893100    1.2098585540    0.5018919862         -0.3575
O776       O    0.5151366694    1.2688866671    0.4994135448         -0.3635
C777       C    0.4626085879    1.2975537391    0.4882650047           0.625
C778       C    0.4578935224    1.2583031010    0.4833537455          0.6235
C779       C    0.5130749429    1.3348552153    0.5085726407         -0.3601
H780       H    0.4419491682    1.2528288237    0.4604398859          0.6037
H781       H    0.4499284402    1.3123407495    0.4675017136          0.6056
H782       H    0.4516842789    1.3055684342    0.5133624967         -0.3532
H783       H    0.4450733513    1.2475596921    0.5064626242          -0.355
H784       H    0.5107584981    1.3062042272    0.4607165959          0.5995
C785       C    0.5022435119    1.3027969946    0.4877341921          0.6238
H786       H    0.5029944460    1.2463144846    0.4521601933          0.5963
C787       C    0.5000000000    1.3664756507    0.5000000000          0.6301
H788       H    0.4818900843    1.3684778407    0.4782201992          0.6108
H789       H    0.5312360240    1.3313693080    0.5300488301         -0.3409
H790       H    0.4006628528    1.1676532977    0.4947319869         -0.3593
H791       H    0.4153251304    1.1424434529    0.5311697603         -0.3252
H792       H    0.3886337267    1.1230463020    0.4984114962         -0.3527
O793       O    0.4401002165    1.1313304044    0.4840197492         -0.3665
C736       C    0.5000000000    0.6335243493    0.0000000000          -0.353
C737       C    0.4751265813    0.6494721826   -0.0189288548         -0.3625
C738       C    0.4771054478    0.6837726887   -0.0245362357          0.6297
C739       C    0.5023735560    0.7040282679   -0.0113697970          0.6317
C740       C    0.5274945612    0.6878255590    0.0070708788         -0.3593
C741       C    0.5261142923    0.6532442595    0.0123690530          -0.352
C742       C    0.5021449005    0.7432588356   -0.0210695207          0.6208
H743       H    0.4573122627    0.6951646988   -0.0411709728          0.6209
C744       C    0.4133214546    0.6419261230   -0.0266518153         -0.3499
H745       H    0.5466481328    0.6409782254    0.0275828902         -0.3445
Cl746     Cl    0.5629284002    0.7098585540    0.0239049639         -0.3575
O747       O    0.5144883511    0.7688866671    0.0044215803         -0.3635
C748       C    0.4685435988    0.7975537391   -0.0233735456           0.625
C749       C    0.4657048706    0.7583031010   -0.0295617548          0.6235
C750       C    0.5095305769    0.8348552153    0.0123940472         -0.3601
H751       H    0.4581783072    0.7528288237   -0.0564433141          0.6037
H752       H    0.4633929670    0.8123407495   -0.0471510854          0.6056
H753       H    0.4499767247    0.8055684342   -0.0032614643         -0.3532
H754       H    0.4460011407    0.7475596921   -0.0119509600          -0.355
H755       H    0.5230732096    0.8062042272   -0.0335642387          0.5995
C756       C    0.5061506400    0.8027969946   -0.0108467976          0.6238
H757       H    0.5185530801    0.7463144846   -0.0441972515          0.5963
C758       C    0.5000000000    0.8664756507    0.0000000000          0.6301
H759       H    0.4900554401    0.8684778407   -0.0265223396          0.6108
H760       H    0.5196232567    0.8313693080    0.0386464641         -0.3409
H761       H    0.4079142445    0.6676532977   -0.0376275752         -0.3593
H762       H    0.4097846384    0.6424434529    0.0016050050         -0.3252
H763       H    0.3953440703    0.6230463020   -0.0381065160         -0.3527
O764       O    0.4486813545    0.6313304044   -0.0347814476         -0.3665
C707       C    0.5000000000    1.3664756507    0.0000000000          -0.353
C708       C    0.4773974880    1.3505278174   -0.0215896955         -0.3625
C709       C    0.4721707585    1.3162273113   -0.0187542182          0.6297
C710       C    0.4891444790    1.2959717321    0.0041308252          0.6317
C711       C    0.5113037860    1.3121744410    0.0260417481         -0.3593
C712       C    0.5163192202    1.3467557405    0.0238460225          -0.352
C713       C    0.4795293434    1.2567411644    0.0054293203          0.6208
H714       H    0.4526322169    1.3048353012   -0.0356873232          0.6209
C715       C    0.4600578246    1.3580738770   -0.0814132183         -0.3499
H716       H    0.5345709108    1.3590217746    0.0417338742         -0.3445
Cl717     Cl    0.5334971240    1.2901414460    0.0583898410         -0.3575
O718       O    0.5066434824    1.2311133329    0.0136134798         -0.3635
C719       C    0.4719735092    1.2024462609   -0.0273924008           0.625
C720       C    0.4654160843    1.2416968990   -0.0292233815          0.6235
C721       C    0.5137377765    1.1651447847    0.0074644355         -0.3601
H722       H    0.4376857365    1.2471711763   -0.0324319943          0.6037
H723       H    0.4476819899    1.1876592505   -0.0287423996          0.6056
H724       H    0.4889179132    1.1944315658   -0.0488891867         -0.3532
H725       H    0.4797116242    1.2524403079   -0.0514498208          -0.355
H726       H    0.4704787543    1.1937957728    0.0280611328          0.5995
C727       C    0.4902545480    1.1972030054    0.0077787888          0.6238
H728       H    0.4592675217    1.2536855154    0.0252681425          0.5963
C729       C    0.5000000000    1.1335243493    0.0000000000          0.6301
H730       H    0.4722444208    1.1315221593   -0.0056530166          0.6108
H731       H    0.5412500638    1.1686306920    0.0133061499         -0.3409
H732       H    0.4483686991    1.3323467023   -0.0850284043         -0.3593
H733       H    0.4874077377    1.3575565471   -0.0893466420         -0.3252
H734       H    0.4459203090    1.3769536980   -0.0973671259         -0.3527
O735       O    0.4575860055    1.3686695956   -0.0452151030         -0.3665
C678       C    0.5000000000    1.0000000000   -0.1335243493          -0.353
C679       C    0.5297018458    1.0097359569   -0.1494721826         -0.3625
C680       C    0.5296691192    1.0156821794   -0.1837726887          0.6297
C681       C    0.5014820952    1.0115199586   -0.2040282679          0.6317
C682       C    0.4717062495    1.0023263501   -0.1878255590         -0.3593
C683       C    0.4712747042    0.9968683687   -0.1532442595          -0.352
C684       C    0.5048757027    1.0206095324   -0.2432588356          0.6208
H685       H    0.5538195267    1.0249148643   -0.1951646988          0.6209
C686       C    0.5906264766    0.9967857766   -0.1419261230         -0.3499
H687       H    0.4468899896    0.9892208107   -0.1409782254         -0.3445
Cl688     Cl    0.4327129552    0.9980290991   -0.2098585540         -0.3575
O689       O    0.4848626532    1.0005687027   -0.2688866671         -0.3635
C690       C    0.5373776237    1.0117788394   -0.2975537391           0.625
C691       C    0.5420869262    1.0166956250   -0.2583031010          0.6235
C692       C    0.4869351199    0.9914120311   -0.3348552153         -0.3601
H693       H    0.5580043963    1.0396281681   -0.2528288237          0.6037
H694       H    0.5500334118    1.0325569874   -0.3123407495          0.6056
H695       H    0.5483313592    0.9866941765   -0.3055684342         -0.3532
H696       H    0.5549341902    0.9936017975   -0.2475596921          -0.355
H697       H    0.4891954382    1.0392707597   -0.3062042272          0.5995
C698       C    0.4977421044    1.0122631683   -0.3027969946          0.6238
H699       H    0.4969494502    1.0478362620   -0.2463144846          0.5963
C700       C    0.5000000000    1.0000000000   -0.3664756507          0.6301
H701       H    0.5180843602    1.0218010249   -0.3684778407          0.6108
H702       H    0.4687992383    0.9699145574   -0.3313693080         -0.3409
H703       H    0.5993309007    1.0053845107   -0.1676532977         -0.3593
H704       H    0.5847113668    0.9689295666   -0.1424434529         -0.3252
H705       H    0.6113643338    1.0017191116   -0.1230463020         -0.3527
O706       O    0.5598810008    1.0160504895   -0.1313304044         -0.3665
C649       C    0.5000000000    1.0000000000    0.1335243493          -0.353
C650       C    0.5297132436    0.9902988837    0.1494721826         -0.3625
C651       C    0.5296874906    0.9843526269    0.1837726887          0.6297
C652       C    0.5014956047    0.9884817875    0.2040282679          0.6317
C653       C    0.4717089973    0.9976404690    0.1878255590         -0.3593
C654       C    0.4712710512    1.0030979405    0.1532442595          -0.352
C655       C    0.5048998700    0.9793962000    0.2432588356          0.6208
H656       H    0.5538487095    0.9751482717    0.1951646988          0.6209
C657       C    0.5906226447    1.0033205067    0.1419261230         -0.3499
H658       H    0.4468773844    1.0107168951    0.1409782254         -0.3445
Cl659     Cl    0.4327106900    1.0018919862    0.2098585540         -0.3575
O660       O    0.4848633306    0.9994135448    0.2688866671         -0.3635
C661       C    0.5373914121    0.9882650047    0.2975537391           0.625
C662       C    0.5421064776    0.9833537455    0.2583031010          0.6235
C663       C    0.4869250571    1.0085726407    0.3348552153         -0.3601
H664       H    0.5580508318    0.9604398859    0.2528288237          0.6037
H665       H    0.5500715598    0.9675017136    0.3123407495          0.6056
H666       H    0.5483157211    1.0133624967    0.3055684342         -0.3532
H667       H    0.5549266487    1.0064626242    0.2475596921          -0.355
H668       H    0.4892415019    0.9607165959    0.3062042272          0.5995
C669       C    0.4977564881    0.9877341921    0.3027969946          0.6238
H670       H    0.4970055540    0.9521601933    0.2463144846          0.5963
C671       C    0.5000000000    1.0000000000    0.3664756507          0.6301
H672       H    0.5181099157    0.9782201992    0.3684778407          0.6108
H673       H    0.4687639760    1.0300488301    0.3313693080         -0.3409
H674       H    0.5993371472    0.9947319869    0.1676532977         -0.3593
H675       H    0.5846748696    1.0311697603    0.1424434529         -0.3252
H676       H    0.6113662733    0.9984114962    0.1230463020         -0.3527
O677       O    0.5598997835    0.9840197492    0.1313304044         -0.3665
C620       C    0.6335243493    0.5000000000    0.5000000000          -0.353
C621       C    0.6494721826    0.5163786536    0.4733780502         -0.3625
C622       C    0.6837726887    0.5125116575    0.4688608637          0.6297
C623       C    0.7040282679    0.4936878162    0.4902500057          0.6317
C624       C    0.6878255590    0.4769022575    0.5165058326         -0.3593
C625       C    0.6532442595    0.4800994414    0.5209503581          -0.352
C626       C    0.7432588356    0.4904048934    0.4811198721          0.6208
H627       H    0.6951646988    0.5249784678    0.4462099632          0.6209
C628       C    0.6419261230    0.5712455943    0.4438969272         -0.3499
H629       H    0.6409782254    0.4664296069    0.5425428353         -0.3445
Cl630     Cl    0.7098585540    0.4499179990    0.5449802627         -0.3575
O631       O    0.7688866671    0.4880792766    0.5093466060         -0.3635
C632       C    0.7975537391    0.5209170707    0.4668593307           0.625
C633       C    0.7583031010    0.5213344784    0.4600638850          0.6235
C634       C    0.8348552153    0.4955774220    0.5149961697         -0.3601
H635       H    0.7528288237    0.5186658126    0.4322763769          0.6037
H636       H    0.8123407495    0.5171510072    0.4428235829          0.6056
H637       H    0.8055684342    0.5454851759    0.4789271739         -0.3532
H638       H    0.7475596921    0.5460614468    0.4693888032          -0.355
H639       H    0.8062042272    0.4663797207    0.4770085246          0.5995
C640       C    0.8027969946    0.4903531368    0.4920992773          0.6238
H641       H    0.7463144846    0.4667634041    0.4654610002          0.5963
C642       C    0.8664756507    0.5000000000    0.5000000000          0.6301
H643       H    0.8684778407    0.4997162737    0.4716760125          0.6108
H644       H    0.8313693080    0.4956256929    0.5431217674         -0.3409
H645       H    0.6676532977    0.5723331882    0.4317099519         -0.3593
H646       H    0.6424434529    0.5847296729    0.4689795224         -0.3252
H647       H    0.6230463020    0.5838857741    0.4267323599         -0.3527
O648       O    0.6313304044    0.5353322801    0.4490590297         -0.3665
C591       C    1.1335243493    0.5000000000    0.5000000000          -0.353
C592       C    1.1494721826    0.5163786536    0.4733780502         -0.3625
C593       C    1.1837726887    0.5125116575    0.4688608637          0.6297
C594       C    1.2040282679    0.4936878162    0.4902500057          0.6317
C595       C    1.1878255590    0.4769022575    0.5165058326         -0.3593
C596       C    1.1532442595    0.4800994414    0.5209503581          -0.352
C597       C    1.2432588356    0.4904048934    0.4811198721          0.6208
H598       H    1.1951646988    0.5249784678    0.4462099632          0.6209
C599       C    1.1419261230    0.5712455943    0.4438969272         -0.3499
H600       H    1.1409782254    0.4664296069    0.5425428353         -0.3445
Cl601     Cl    1.2098585540    0.4499179990    0.5449802627         -0.3575
O602       O    1.2688866671    0.4880792766    0.5093466060         -0.3635
C603       C    1.2975537391    0.5209170707    0.4668593307           0.625
C604       C    1.2583031010    0.5213344784    0.4600638850          0.6235
C605       C    1.3348552153    0.4955774220    0.5149961697         -0.3601
H606       H    1.2528288237    0.5186658126    0.4322763769          0.6037
H607       H    1.3123407495    0.5171510072    0.4428235829          0.6056
H608       H    1.3055684342    0.5454851759    0.4789271739         -0.3532
H609       H    1.2475596921    0.5460614468    0.4693888032          -0.355
H610       H    1.3062042272    0.4663797207    0.4770085246          0.5995
C611       C    1.3027969946    0.4903531368    0.4920992773          0.6238
H612       H    1.2463144846    0.4667634041    0.4654610002          0.5963
C613       C    1.3664756507    0.5000000000    0.5000000000          0.6301
H614       H    1.3684778407    0.4997162737    0.4716760125          0.6108
H615       H    1.3313693080    0.4956256929    0.5431217674         -0.3409
H616       H    1.1676532977    0.5723331882    0.4317099519         -0.3593
H617       H    1.1424434529    0.5847296729    0.4689795224         -0.3252
H618       H    1.1230463020    0.5838857741    0.4267323599         -0.3527
O619       O    1.1313304044    0.5353322801    0.4490590297         -0.3665
C562       C    0.8664756507    0.5000000000    0.0000000000          -0.353
C563       C    0.8505278174    0.5305907614    0.0064182411         -0.3625
C564       C    0.8162273113    0.5312106613    0.0123321532          0.6297
C565       C    0.7959717321    0.5027371350    0.0112877874          0.6317
C566       C    0.8121744410    0.4721323278    0.0054167396         -0.3593
C567       C    0.8467557405    0.4711045296    0.0000390614          -0.352
C568       C    0.7567411644    0.5071075756    0.0199501296          0.6208
H569       H    0.8048353012    0.5562282822    0.0188592734          0.6209
C570       C    0.8580738770    0.5897266369   -0.0131384979         -0.3499
H571       H    0.8590217746    0.4460279389   -0.0048867938         -0.3445
Cl572     Cl    0.7901414460    0.4329029598    0.0054238400         -0.3575
O573       O    0.7311133329    0.4850164460    0.0022261628         -0.3635
C574       C    0.7024462609    0.5384443440    0.0076065908           0.625
C575       C    0.7416968990    0.5436646909    0.0119769785          0.6235
C576       C    0.6651447847    0.4860717154   -0.0071026185         -0.3601
H577       H    0.7471711763    0.5620022521    0.0330245731          0.6037
H578       H    0.6876592505    0.5533035324    0.0268706746          0.6056
H579       H    0.6944315658    0.5465796158   -0.0185284811         -0.3532
H580       H    0.7524403079    0.5539004964   -0.0123870390          -0.355
H581       H    0.6937957728    0.4935695223    0.0402191506          0.5995
C582       C    0.6972030054    0.4991012711    0.0124368676          0.6238
H583       H    0.7536855154    0.5022165389    0.0478821550          0.5963
C584       C    0.6335243493    0.5000000000    0.0000000000          0.6301
H585       H    0.6315221593    0.5203672164    0.0196851534          0.6108
H586       H    0.6686306920    0.4656865947   -0.0264804005         -0.3409
H587       H    0.8323467023    0.5993219735   -0.0055467431         -0.3593
H588       H    0.8575565471    0.5807908129   -0.0401775069         -0.3252
H589       H    0.8769536980    0.6108805797   -0.0105103393         -0.3527
O590       O    0.8686695956    0.5612805461    0.0093833440         -0.3665
C533       C    1.1335243493    0.5000000000    0.0000000000          -0.353
C534       C    1.1494721826    0.4745412251    0.0181339262         -0.3625
C535       C    1.1837726887    0.4763420268    0.0238010018          0.6297
C536       C    1.2040282679    0.5020133208    0.0114390818          0.6317
C537       C    1.1878255590    0.5277041423   -0.0061990903         -0.3593
C538       C    1.1532442595    0.5264918750   -0.0115382101          -0.352
C539       C    1.2432588356    0.5014784678    0.0211267469          0.6208
H540       H    1.1951646988    0.4560333986    0.0398023854          0.6209
C541       C    1.1419261230    0.4125230374    0.0239012659         -0.3499
H542       H    1.1409782254    0.5474959181   -0.0260960129         -0.3445
Cl543     Cl    1.2098585540    0.5636519189   -0.0219057999         -0.3575
O544       O    1.2688866671    0.5146207559   -0.0039618415         -0.3635
C545       C    1.2975537391    0.4678211652    0.0223685136           0.625
C546       C    1.2583031010    0.4647884328    0.0284639910          0.6235
C547       C    1.3348552153    0.5099172201   -0.0120868957         -0.3601
H548       H    1.2528288237    0.4564167198    0.0550944587          0.6037
H549       H    1.3123407495    0.4619222217    0.0459715403          0.6056
H550       H    1.3055684342    0.4498986789    0.0016801324         -0.3532
H551       H    1.2475596921    0.4456506687    0.0102397477          -0.355
H552       H    1.3062042272    0.5220017632    0.0342761366          0.5995
C553       C    1.3027969946    0.5058050369    0.0110356212          0.6238
H554       H    1.2463144846    0.5171481038    0.0447611031          0.5963
C555       C    1.3664756507    0.5000000000    0.0000000000          0.6301
H556       H    1.3684778407    0.4892228403    0.0261950682          0.6108
H557       H    1.3313693080    0.5208339018   -0.0380074983         -0.3409
H558       H    1.1676532977    0.4067719162    0.0347007950         -0.3593
H559       H    1.1424434529    0.4098803188   -0.0044531517         -0.3252
H560       H    1.1230463020    0.3941928868    0.0347825384         -0.3527
O561       O    1.1313304044    0.4476085725    0.0331434880         -0.3665
C504       C    1.0000000000    0.5000000000   -0.3664756507          -0.353
C505       C    1.0297132436    0.4902988837   -0.3505278174         -0.3625
C506       C    1.0296874906    0.4843526269   -0.3162273113          0.6297
C507       C    1.0014956047    0.4884817875   -0.2959717321          0.6317
C508       C    0.9717089973    0.4976404690   -0.3121744410         -0.3593
C509       C    0.9712710512    0.5030979405   -0.3467557405          -0.352
C510       C    1.0048998700    0.4793962000   -0.2567411644          0.6208
H511       H    1.0538487095    0.4751482717   -0.3048353012          0.6209
C512       C    1.0906226447    0.5033205067   -0.3580738770         -0.3499
H513       H    0.9468773844    0.5107168951   -0.3590217746         -0.3445
Cl514     Cl    0.9327106900    0.5018919862   -0.2901414460         -0.3575
O515       O    0.9848633306    0.4994135448   -0.2311133329         -0.3635
C516       C    1.0373914121    0.4882650047   -0.2024462609           0.625
C517       C    1.0421064776    0.4833537455   -0.2416968990          0.6235
C518       C    0.9869250571    0.5085726407   -0.1651447847         -0.3601
H519       H    1.0580508318    0.4604398859   -0.2471711763          0.6037
H520       H    1.0500715598    0.4675017136   -0.1876592505          0.6056
H521       H    1.0483157211    0.5133624967   -0.1944315658         -0.3532
H522       H    1.0549266487    0.5064626242   -0.2524403079          -0.355
H523       H    0.9892415019    0.4607165959   -0.1937957728          0.5995
C524       C    0.9977564881    0.4877341921   -0.1972030054          0.6238
H525       H    0.9970055540    0.4521601933   -0.2536855154          0.5963
C526       C    1.0000000000    0.5000000000   -0.1335243493          0.6301
H527       H    1.0181099157    0.4782201992   -0.1315221593          0.6108
H528       H    0.9687639760    0.5300488301   -0.1686306920         -0.3409
H529       H    1.0993371472    0.4947319869   -0.3323467023         -0.3593
H530       H    1.0846748696    0.5311697603   -0.3575565471         -0.3252
H531       H    1.1113662733    0.4984114962   -0.3769536980         -0.3527
O532       O    1.0598997835    0.4840197492   -0.3686695956         -0.3665
C475       C    1.0000000000    0.5000000000    0.3664756507          -0.353
C476       C    0.9701898693    0.4906008185    0.3505278174         -0.3625
C477       C    0.9701552973    0.4846546064    0.3162273113          0.6297
C478       C    0.9983876221    0.4884975529    0.2959717321          0.6317
C479       C    1.0282656098    0.4973535832    0.3121744410         -0.3593
C480       C    1.0287588985    0.5028063310    0.3467557405          -0.352
C481       C    0.9948913603    0.4794469686    0.2567411644          0.6208
H482       H    0.9459019452    0.4756958361    0.3048353012          0.6209
C483       C    0.9094157047    0.5042396864    0.3580738770         -0.3499
H484       H    1.0532286029    0.5101774242    0.3590217746         -0.3445
Cl485     Cl    1.0673050411    0.5012092508    0.2901414460         -0.3575
O486       O    1.0151299410    0.4992600161    0.2311133329         -0.3635
C487       C    0.9624914627    0.4886449378    0.2024462609           0.625
C488       C    0.9577268159    0.4837817648    0.2416968990          0.6235
C489       C    1.0131612380    0.5084395566    0.1651447847         -0.3601
H490       H    0.9415508252    0.4610308371    0.2471711763          0.6037
H491       H    0.9496013276    0.4680113530    0.1876592505          0.6056
H492       H    0.9518223254    0.5138519634    0.1944315658         -0.3532
H493       H    0.9451417400    0.5070195127    0.2524403079          -0.355
H494       H    1.0103594214    0.4606094744    0.1937957728          0.5995
C495       C    1.0021189620    0.4877120633    0.1972030054          0.6238
H496       H    1.0025089656    0.4521322770    0.2536855154          0.5963
C497       C    1.0000000000    0.5000000000    0.1335243493          0.6301
H498       H    0.9816700640    0.4784050419    0.1315221593          0.6108
H499       H    1.0315392567    0.5297303999    0.1686306920         -0.3409
H500       H    0.9006145216    0.4957400157    0.3323467023         -0.3593
H501       H    0.9156456994    0.5320271678    0.3575565471         -0.3252
H502       H    0.8886233425    0.4995413690    0.3769536980         -0.3527
O503       O    0.9399411822    0.4846282442    0.3686695956         -0.3665
C446       C    1.0000000000   -0.1335243493    0.5000000000          -0.353
C447       C    1.0297132436   -0.1494721826    0.4902988837         -0.3625
C448       C    1.0296874906   -0.1837726887    0.4843526269          0.6297
C449       C    1.0014956047   -0.2040282679    0.4884817875          0.6317
C450       C    0.9717089973   -0.1878255590    0.4976404690         -0.3593
C451       C    0.9712710512   -0.1532442595    0.5030979405          -0.352
C452       C    1.0048998700   -0.2432588356    0.4793962000          0.6208
H453       H    1.0538487095   -0.1951646988    0.4751482717          0.6209
C454       C    1.0906226447   -0.1419261230    0.5033205067         -0.3499
H455       H    0.9468773844   -0.1409782254    0.5107168951         -0.3445
Cl456     Cl    0.9327106900   -0.2098585540    0.5018919862         -0.3575
O457       O    0.9848633306   -0.2688866671    0.4994135448         -0.3635
C458       C    1.0373914121   -0.2975537391    0.4882650047           0.625
C459       C    1.0421064776   -0.2583031010    0.4833537455          0.6235
C460       C    0.9869250571   -0.3348552153    0.5085726407         -0.3601
H461       H    1.0580508318   -0.2528288237    0.4604398859          0.6037
H462       H    1.0500715598   -0.3123407495    0.4675017136          0.6056
H463       H    1.0483157211   -0.3055684342    0.5133624967         -0.3532
H464       H    1.0549266487   -0.2475596921    0.5064626242          -0.355
H465       H    0.9892415019   -0.3062042272    0.4607165959          0.5995
C466       C    0.9977564881   -0.3027969946    0.4877341921          0.6238
H467       H    0.9970055540   -0.2463144846    0.4521601933          0.5963
C468       C    1.0000000000   -0.3664756507    0.5000000000          0.6301
H469       H    1.0181099157   -0.3684778407    0.4782201992          0.6108
H470       H    0.9687639760   -0.3313693080    0.5300488301         -0.3409
H471       H    1.0993371472   -0.1676532977    0.4947319869         -0.3593
H472       H    1.0846748696   -0.1424434529    0.5311697603         -0.3252
H473       H    1.1113662733   -0.1230463020    0.4984114962         -0.3527
O474       O    1.0598997835   -0.1313304044    0.4840197492         -0.3665
C417       C    1.0000000000    0.1335243493    0.5000000000          -0.353
C418       C    0.9869015643    0.1494721826    0.5283799134         -0.3625
C419       C    0.9809988428    0.1837726887    0.5276612257          0.6297
C420       C    0.9883859716    0.2040282679    0.5001428187          0.6317
C421       C    1.0009542216    0.1878255590    0.4716268140         -0.3593
C422       C    1.0064255395    0.1532442595    0.4718279895          -0.352
C423       C    0.9789655077    0.2432588356    0.5024648400          0.6208
H424       H    0.9690409395    0.1951646988    0.5505848642          0.6209
C425       C    0.9927346748    0.1419261230    0.5903919496         -0.3499
H426       H    1.0168359440    0.1409782254    0.4484886894         -0.3445
Cl427     Cl    1.0097224959    0.2098585540    0.4333899112         -0.3575
O428       O    1.0011819097    0.2688866671    0.4848981531         -0.3635
C429       C    0.9839865634    0.2975537391    0.5357686687           0.625
C430       C    0.9785591829    0.2583031010    0.5398791250          0.6235
C431       C    1.0100382515    0.3348552153    0.4880134322         -0.3601
H432       H    0.9539430058    0.2528288237    0.5530438967          0.6037
H433       H    0.9618867790    0.3123407495    0.5459421604          0.6056
H434       H    1.0076396107    0.3055684342    0.5495439358         -0.3532
H435       H    1.0000161863    0.2475596921    0.5553055331          -0.355
H436       H    0.9622384134    0.3062042272    0.4847358689          0.5995
C437       C    0.9880793129    0.3027969946    0.4963420487          0.6238
H438       H    0.9528353397    0.2463144846    0.4914496411          0.5963
C439       C    1.0000000000    0.3664756507    0.5000000000          0.6301
H440       H    0.9762577281    0.3684778407    0.5154477602          0.6108
H441       H    1.0334849456    0.3313693080    0.4724794657         -0.3409
H442       H    0.9831889161    0.1676532977    0.5980459496         -0.3593
H443       H    1.0210873775    0.1424434529    0.5877308954         -0.3252
H444       H    0.9854411991    0.1230463020    0.6104219702         -0.3527
O445       O    0.9771466154    0.1313304044    0.5576287714         -0.3665
C388       C    0.8664756507   -0.0000000000    0.5000000000          -0.353
C389       C    0.8505278174    0.0308105773    0.5052627777         -0.3625
C390       C    0.8162273113    0.0316525380    0.5111491803          0.6297
C391       C    0.7959717321    0.0031598787    0.5111768162          0.6317
C392       C    0.8121744410   -0.0276441474    0.5064613728         -0.3593
C393       C    0.8467557405   -0.0288735428    0.5011261709          -0.352
C394       C    0.7567411644    0.0078531291    0.5196685959          0.6208
H395       H    0.8048353012    0.0568980169    0.5167304389          0.6209
C396       C    0.8580738770    0.0891687995    0.4834950100         -0.3499
H397       H    0.8590217746   -0.0541177052    0.4971472623         -0.3445
Cl398     Cl    0.7901414460   -0.0668454739    0.5079443985         -0.3575
O399       O    0.7311133329   -0.0148891905    0.5027883144         -0.3635
C400       C    0.7024462609    0.0387033090    0.5061548099           0.625
C401       C    0.7416968990    0.0440843874    0.5103256978          0.6235
C402       C    0.6651447847   -0.0141856459    0.4934264354         -0.3601
H403       H    0.7471711763    0.0632008413    0.5306684748          0.6037
H404       H    0.6876592505    0.0542767515    0.5248462061          0.6056
H405       H    0.6944315658    0.0458495386    0.4797321675         -0.3532
H406       H    0.7524403079    0.0533962961    0.4855938273          -0.355
H407       H    0.6937957728   -0.0049127558    0.5404326100          0.5995
C408       C    0.6972030054   -0.0004301791    0.5124618753          0.6238
H409       H    0.7536855154    0.0040164447    0.5477648614          0.5963
C410       C    0.6335243493   -0.0000000000    0.5000000000          0.6301
H411       H    0.6315221593    0.0210934129    0.5189049386          0.6108
H412       H    0.6686306920   -0.0352853861    0.4748293243         -0.3409
H413       H    0.8323467023    0.0990429679    0.4907203836         -0.3593
H414       H    0.8575565471    0.0792220107    0.4568113380         -0.3252
H415       H    0.8769536980    0.1104066448    0.4853254310         -0.3527
O416       O    0.8686695956    0.0615901900    0.5070711365         -0.3665
C359       C    1.1335243493   -0.0000000000    0.5000000000          -0.353
C360       C    1.1494721826   -0.0310121005    0.4960963958         -0.3625
C361       C    1.1837726887   -0.0335258319    0.5014852535          0.6297
C362       C    1.2040282679   -0.0062669905    0.5097791044          0.6317
C363       C    1.1878255590    0.0245800266    0.5142045949         -0.3593
C364       C    1.1532442595    0.0273045888    0.5094556421          -0.352
C365       C    1.2432588356   -0.0132222969    0.5165437651          0.6208
H366       H    1.1951646988   -0.0593046635    0.4995011924          0.6209
C367       C    1.1419261230   -0.0805435444    0.4583319434         -0.3499
H368       H    1.1409782254    0.0526172240    0.5129727354         -0.3445
Cl369     Cl    1.2098585540    0.0616645369    0.5269984396         -0.3575
O370       O    1.2688866671    0.0134395793    0.5069885907         -0.3635
C371       C    1.2975537391   -0.0388241057    0.4946599036           0.625
C372       C    1.2583031010   -0.0451839026    0.4970899844          0.6235
C373       C    1.3348552153    0.0154827366    0.4978253346         -0.3601
H374       H    1.2528288237   -0.0693805782    0.5110107704          0.6037
H375       H    1.3123407495   -0.0591510326    0.5080283906          0.6056
H376       H    1.3055684342   -0.0379961235    0.4673004614         -0.3532
H377       H    1.2475596921   -0.0469190214    0.4707201831          -0.355
H378       H    1.3062042272   -0.0070304878    0.5401186161          0.5995
C379       C    1.3027969946   -0.0032042542    0.5120505661          0.6238
H380       H    1.2463144846   -0.0177030594    0.5445445339          0.5963
C381       C    1.3664756507   -0.0000000000    0.5000000000          0.6301
H382       H    1.3684778407   -0.0256713807    0.5119711729          0.6108
H383       H    1.3313693080    0.0410708535    0.4861505818         -0.3409
H384       H    1.1676532977   -0.0920894184    0.4623813902         -0.3593
H385       H    1.1424434529   -0.0632821723    0.4356823961         -0.3252
H386       H    1.1230463020   -0.1013988174    0.4539212630         -0.3527
O387       O    1.1313304044   -0.0609922375    0.4888959718         -0.3665
C330       C   -0.0000000000   -0.1335243493    0.0000000000          -0.353
C331       C    0.0014624272   -0.1494721826   -0.0312225849         -0.3625
C332       C   -0.0041067741   -0.1837726887   -0.0333064827          0.6297
C333       C   -0.0102399523   -0.2040282679   -0.0054817361          0.6317
C334       C   -0.0122355932   -0.1878255590    0.0256171521         -0.3593
C335       C   -0.0072878162   -0.1532442595    0.0279613567          -0.352
C336       C   -0.0175286387   -0.2432588356   -0.0118857951          0.6208
H337       H   -0.0041480695   -0.1951646988   -0.0591615199          0.6209
C338       C    0.0352310408   -0.1419261230   -0.0835599381         -0.3499
H339       H   -0.0088113602   -0.1409782254    0.0534717127         -0.3445
Cl340     Cl   -0.0220852924   -0.2098585540    0.0635898633         -0.3575
O341       O   -0.0059143935   -0.2688866671    0.0139457033         -0.3635
C342       C    0.0022825900   -0.2975537391   -0.0391231082           0.625
C343       C   -0.0006381884   -0.2583031010   -0.0452730159          0.6235
C344       C    0.0033807491   -0.3348552153    0.0152648235         -0.3601
H345       H   -0.0164115320   -0.2528288237   -0.0683049289          0.6037
H346       H   -0.0126370336   -0.3123407495   -0.0583404242          0.6056
H347       H    0.0296228255   -0.3055684342   -0.0404407398         -0.3532
H348       H    0.0255146789   -0.2475596921   -0.0490683545          -0.355
H349       H   -0.0405460499   -0.3062042272   -0.0038663884          0.5995
C350       C   -0.0122645302   -0.3027969946   -0.0022504862          0.6238
H351       H   -0.0457943533   -0.2463144846   -0.0141594853          0.5963
C352       C    0.0000000000   -0.3664756507    0.0000000000          0.6301
H353       H   -0.0139452348   -0.3684778407   -0.0246548007          0.6108
H354       H    0.0170239525   -0.3313693080    0.0398598348         -0.3409
H355       H    0.0302896457   -0.1676532977   -0.0947531432         -0.3593
H356       H    0.0591630829   -0.1424434529   -0.0681257449         -0.3252
H357       H    0.0379945721   -0.1230463020   -0.1046966221         -0.3527
O358       O    0.0062923783   -0.1313304044   -0.0616746176         -0.3665
C301       C    0.0000000000    0.1335243493    0.0000000000          -0.353
C302       C   -0.0292511143    0.1494721826    0.0110163884         -0.3625
C303       C   -0.0329503730    0.1837726887    0.0063608413          0.6297
C304       C   -0.0083714938    0.2040282679   -0.0080513443          0.6317
C305       C    0.0205975710    0.1878255590   -0.0195368444         -0.3593
C306       C    0.0243528883    0.1532442595   -0.0155527029          -0.352
C307       C   -0.0167105849    0.2432588356   -0.0130108284          0.6208
H308       H   -0.0575589183    0.1951646988    0.0142920549          0.6209
C309       C   -0.0686294061    0.1419261230    0.0592747342         -0.3499
H310       H    0.0481511365    0.1409782254   -0.0248662860         -0.3445
Cl311     Cl    0.0536844611    0.2098585540   -0.0406129227         -0.3575
O312       O    0.0114432354    0.2688866671   -0.0099254750         -0.3635
C313       C   -0.0365140202    0.2975537391    0.0142321515           0.625
C314       C   -0.0432648150    0.2583031010    0.0133494957          0.6235
C315       C    0.0155635834    0.3348552153   -0.0014896889         -0.3601
H316       H   -0.0700375504    0.2528288237    0.0054445591          0.6037
H317       H   -0.0593947599    0.3123407495    0.0059634058          0.6056
H318       H   -0.0293391297    0.3055684342    0.0406470257         -0.3532
H319       H   -0.0388129968    0.2475596921    0.0393986488          -0.355
H320       H   -0.0161774733    0.3062042272   -0.0373794125          0.5995
C321       C   -0.0059217456    0.3027969946   -0.0109734370          0.6238
H322       H   -0.0275871918    0.2463144846   -0.0391989880          0.5963
C323       C    0.0000000000    0.3664756507    0.0000000000          0.6301
H324       H   -0.0277530205    0.3684778407   -0.0056655645          0.6108
H325       H    0.0431666173    0.3313693080    0.0039069857         -0.3409
H326       H   -0.0808007821    0.1676532977    0.0580246017         -0.3593
H327       H   -0.0465692232    0.1424434529    0.0772832126         -0.3252
H328       H   -0.0878847350    0.1230463020    0.0684196137         -0.3527
O329       O   -0.0567310765    0.1313304044    0.0249987486         -0.3665
C272       C   -0.1335243493   -0.0000000000    0.0000000000          -0.353
C273       C   -0.1494721826    0.0286386451   -0.0125226400         -0.3625
C274       C   -0.1837726887    0.0325750026   -0.0080657664          0.6297
C275       C   -0.2040282679    0.0087788637    0.0076051038          0.6317
C276       C   -0.1878255590   -0.0195537180    0.0205815532         -0.3593
C277       C   -0.1532442595   -0.0235111430    0.0167980919          -0.352
C278       C   -0.2432588356    0.0173645814    0.0121242161          0.6208
H279       H   -0.1951646988    0.0567378001   -0.0172659767          0.6209
C280       C   -0.1419261230    0.0654540556   -0.0627634934         -0.3499
H281       H   -0.1409782254   -0.0467928518    0.0273366631         -0.3445
Cl282     Cl   -0.2098585540   -0.0514998104    0.0433497449         -0.3575
O283       O   -0.2688866671   -0.0109115931    0.0105071322         -0.3635
C284       C   -0.2975537391    0.0357244929   -0.0161117478           0.625
C285       C   -0.2583031010    0.0425120543   -0.0155813506          0.6235
C286       C   -0.3348552153   -0.0154650555    0.0022970327         -0.3601
H287       H   -0.2528288237    0.0696596475   -0.0090793837          0.6037
H288       H   -0.3123407495    0.0590042759   -0.0090440670          0.6056
H289       H   -0.3055684342    0.0271856470   -0.0421177613         -0.3532
H290       H   -0.2475596921    0.0367116150   -0.0413637471          -0.355
H291       H   -0.3062042272    0.0180994407    0.0364875509          0.5995
C292       C   -0.3027969946    0.0064843891    0.0106506379          0.6238
H293       H   -0.2463144846    0.0295883450    0.0377113200          0.5963
C294       C   -0.3664756507   -0.0000000000    0.0000000000          0.6301
H295       H   -0.3684778407    0.0280100968    0.0042146467          0.6108
H296       H   -0.3313693080   -0.0433113855   -0.0016568878         -0.3409
H297       H   -0.1676532977    0.0776739738   -0.0621480055         -0.3593
H298       H   -0.1424434529    0.0424872199   -0.0796003998         -0.3252
H299       H   -0.1230463020    0.0842077654   -0.0728973418         -0.3527
O300       O   -0.1313304044    0.0553542939   -0.0279151325         -0.3665
C243       C    0.3664756507   -0.0000000000    0.0000000000          -0.353
C244       C    0.3505278174    0.0140005523   -0.0279458949         -0.3625
C245       C    0.3162273113    0.0198772311   -0.0270385478          0.6297
C246       C    0.2959717321    0.0116126452    0.0002291807          0.6317
C247       C    0.3121744410   -0.0018623514    0.0283280756         -0.3593
C248       C    0.3467557405   -0.0073244207    0.0279517906          -0.352
C249       C    0.2567411644    0.0211026375   -0.0017899699          0.6208
H250       H    0.3048353012    0.0325631049   -0.0495674905          0.6209
C251       C    0.3580738770    0.0101562990   -0.0901129241         -0.3499
H252       H    0.3590217746   -0.0184769005    0.0509457386         -0.3445
Cl253     Cl    0.2901414460   -0.0118506222    0.0662645728         -0.3575
O254       O    0.2311133329   -0.0016649231    0.0150562519         -0.3635
C255       C    0.2024462609    0.0171506746   -0.0352375109           0.625
C256       C    0.2416968990    0.0227069042   -0.0391720532          0.6235
C257       C    0.1651447847   -0.0104169592    0.0116589563         -0.3601
H258       H    0.2471711763    0.0477320427   -0.0515417675          0.6037
H259       H    0.1876592505    0.0395649187   -0.0446980640          0.6056
H260       H    0.1944315658   -0.0060491038   -0.0497631748         -0.3532
H261       H    0.2524403079    0.0017549193   -0.0552776854          -0.355
H262       H    0.1937957728    0.0372534023    0.0164655744          0.5995
C263       C    0.1972030054    0.0117974313    0.0040378217          0.6238
H264       H    0.2536855154    0.0468666541    0.0100563684          0.5963
C265       C    0.1335243493   -0.0000000000    0.0000000000          0.6301
H266       H    0.1315221593    0.0242247917   -0.0146795176          0.6108
H267       H    0.1686306920   -0.0343490853    0.0264341016         -0.3409
H268       H    0.3323467023    0.0199422724   -0.0974573063         -0.3593
H269       H    0.3575565471   -0.0182670789   -0.0883611981         -0.3252
H270       H    0.3769536980    0.0180874726   -0.1098991061         -0.3527
O271       O    0.3686695956    0.0246871595   -0.0568673600         -0.3665
C214       C   -0.0000000000    0.0000000000   -0.1335243493          -0.353
C215       C    0.0297094818    0.0097126308   -0.1494721826         -0.3625
C216       C    0.0296814243    0.0156588771   -0.1837726887          0.6297
C217       C    0.0014911408    0.0115187913   -0.2040282679          0.6317
C218       C   -0.0282919150    0.0023485668   -0.1878255590         -0.3593
C219       C   -0.0287277461   -0.0031090740   -0.1532442595          -0.352
C220       C    0.0048918847    0.0206056974   -0.2432588356          0.6208
H221       H    0.0538390743    0.0248725952   -0.1951646988          0.6209
C222       C    0.0906239247   -0.0032853861   -0.1419261230         -0.3499
H223       H   -0.0531184583   -0.0107374817   -0.1409782254         -0.3445
Cl224     Cl   -0.0672885717   -0.0019180637   -0.2098585540         -0.3575
O225       O   -0.0151368955    0.0005805890   -0.2688866671         -0.3635
C226       C    0.0373868614    0.0117494852   -0.2975537391           0.625
C227       C    0.0421000233    0.0166625714   -0.2583031010          0.6235
C228       C   -0.0130716197   -0.0085777072   -0.3348552153         -0.3601
H229       H    0.0580354961    0.0395826084   -0.2528288237          0.6037
H230       H    0.0500589615    0.0325176889   -0.3123407495          0.6056
H231       H    0.0483208960   -0.0133437712   -0.3055684342         -0.3532
H232       H    0.0549291491   -0.0064413372   -0.2475596921          -0.355
H233       H   -0.0107737214    0.0392792318   -0.3062042272          0.5995
C234       C   -0.0022482653    0.0122649375   -0.3027969946          0.6238
H235       H   -0.0030129858    0.0478386427   -0.2463144846          0.5963
C236       C    0.0000000000    0.0000000000   -0.3664756507          0.6301
H237       H    0.0181014737    0.0217868176   -0.3684778407          0.6108
H238       H   -0.0312243765   -0.0300609332   -0.3313693080         -0.3409
H239       H    0.0993350982    0.0053065102   -0.1676532977         -0.3593
H240       H    0.0846869429   -0.0311369427   -0.1424434529         -0.3252
H241       H    0.1113656494    0.0016316630   -0.1230463020         -0.3527
O242       O    0.0598935859    0.0160034634   -0.1313304044         -0.3665
C185       C   -0.0000000000    0.0000000000    0.1335243493          -0.353
C186       C    0.0171677118    0.0261200722    0.1494721826         -0.3625
C187       C    0.0228982558    0.0245327794    0.1837726887          0.6297
C188       C    0.0115064600   -0.0015834873    0.2040282679          0.6317
C189       C   -0.0051571549   -0.0279168762    0.1878255590         -0.3593
C190       C   -0.0105379311   -0.0269054222    0.1532442595          -0.352
C191       C    0.0211672968   -0.0006861834    0.2432588356          0.6208
H192       H    0.0381278064    0.0454264493    0.1951646988          0.6209
C193       C    0.0206082760    0.0883107494    0.1419261230         -0.3499
H194       H   -0.0242988688   -0.0484399536    0.1409782254         -0.3445
Cl195     Cl   -0.0195065148   -0.0644276861    0.2098585540         -0.3575
O196       O   -0.0034114797   -0.0147588786    0.2688866671         -0.3635
C197       C    0.0211476460    0.0329940128    0.2975537391           0.625
C198       C    0.0271252638    0.0362529076    0.2583031010          0.6235
C199       C   -0.0117069921   -0.0103629454    0.3348552153         -0.3601
H200       H    0.0534235073    0.0456161217    0.2528288237          0.6037
H201       H    0.0445131836    0.0397728073    0.3123407495          0.6056
H202       H   -0.0001974604    0.0501290957    0.3055684342         -0.3532
H203       H    0.0081970514    0.0546947036    0.2475596921          -0.355
H204       H    0.0350761074   -0.0207026039    0.3062042272          0.5995
C205       C    0.0112452913   -0.0053876538    0.3027969946          0.6238
H206       H    0.0453719367   -0.0154596628    0.2463144846          0.5963
C207       C    0.0000000000    0.0000000000    0.3664756507          0.6301
H208       H    0.0257730598    0.0117506664    0.3684778407          0.6108
H209       H   -0.0372005534   -0.0222427565    0.3313693080         -0.3377
H210       H    0.0311848352    0.0944623038    0.1676532977         -0.3593
H211       H   -0.0078252246    0.0898896733    0.1424434529         -0.3252
H212       H    0.0307954065    0.1070355694    0.1230463020         -0.3527
O213       O    0.0311580509    0.0535959731    0.1313304044         -0.3665
loop_
_geom_bond_atom_site_label_1
_geom_bond_atom_site_label_2
_geom_bond_distance
_geom_bond_site_symmetry_2
_ccdc_geom_bond_type
Zn1          O5 1.942       .   S
Zn1          O6 1.922       .   S
Zn1         O10 1.922       .   S
Zn1         O17 1.922       .   S
Zn2          O5 1.942       .   S
Zn2          O7 1.922       .   S
Zn2          O9 1.922       .   S
Zn2         O13 1.922       .   S
Zn3          O5 1.942       .   S
Zn3          O8 1.922       .   S
Zn3         O11 1.922       .   S
Zn3         O14 1.922       .   S
Zn4          O5 1.942       .   S
Zn4         O12 1.922       .   S
Zn4         O15 1.922       .   S
Zn4         O16 1.922       .   S
O6          C18 1.304       .   A
O7          C19 1.304       .   A
O8          C20 1.304       .   A
O9          C18 1.304       .   A
O10         C20 1.304       .   A
O11         C19 1.304       .   A
O12         C21 1.304       .   A
O13         C22 1.304       .   A
O14         C21 1.304       .   A
O15         C22 1.304       .   A
O16         C23 1.304       .   A
O17         C23 1.304       .   A
C18        C185 1.540       .   S
C19        C265 1.540       .   S
C20        C330 1.540       .   S
C21        C214 1.540       .   S
C22        C301 1.540       .   S
C23        C272 1.540       .   S
Zn24        O28 1.942       .   S
Zn24        O29 1.922       .   S
Zn24        O33 1.922       .   S
Zn24        O40 1.922       .   S
Zn25        O28 1.942       .   S
Zn25        O30 1.922       .   S
Zn25        O32 1.922       .   S
Zn25        O36 1.922       .   S
Zn26        O28 1.942       .   S
Zn26        O31 1.922       .   S
Zn26        O34 1.922       .   S
Zn26        O37 1.922       .   S
Zn27        O28 1.942       .   S
Zn27        O35 1.922       .   S
Zn27        O38 1.922       .   S
Zn27        O39 1.922       .   S
O29         C41 1.304       .   A
O30         C42 1.304       .   A
O31         C43 1.304       .   A
O32         C41 1.304       .   A
O33         C43 1.304       .   A
O34         C42 1.304       .   A
O35         C44 1.304       .   A
O36         C45 1.304       .   A
O37         C44 1.304       .   A
O38         C45 1.304       .   A
O39         C46 1.304       .   A
O40         C46 1.304       .   A
C41        C207 1.540   1_655   S
C42        C359 1.540       .   S
C43        C417 1.540       .   S
C44        C236 1.540   1_656   S
C45        C446 1.540       .   S
C46        C388 1.540       .   S
Zn47        O51 1.942       .   S
Zn47        O52 1.922       .   S
Zn47        O56 1.922       .   S
Zn47        O63 1.922       .   S
Zn48        O51 1.942       .   S
Zn48        O53 1.922       .   S
Zn48        O55 1.922       .   S
Zn48        O59 1.922       .   S
Zn49        O51 1.942       .   S
Zn49        O54 1.922       .   S
Zn49        O57 1.922       .   S
Zn49        O60 1.922       .   S
Zn50        O51 1.942       .   S
Zn50        O58 1.922       .   S
Zn50        O61 1.922       .   S
Zn50        O62 1.922       .   S
O52         C64 1.304       .   A
O53         C65 1.304       .   A
O54         C66 1.304       .   A
O55         C64 1.304       .   A
O56         C66 1.304       .   A
O57         C65 1.304       .   A
O58         C67 1.304       .   A
O59         C68 1.304       .   A
O60         C67 1.304       .   A
O61         C68 1.304       .   A
O62         C69 1.304       .   A
O63         C69 1.304       .   A
C64        C323 1.540   1_655   S
C65        C562 1.540       .   S
C66        C497 1.540       .   S
C67        C352 1.540   1_665   S
C68        C526 1.540       .   S
C69        C533 1.540       .   S
Zn70        O74 1.942       .   S
Zn70        O75 1.922       .   S
Zn70        O79 1.922       .   S
Zn70        O86 1.922       .   S
Zn71        O74 1.942       .   S
Zn71        O76 1.922       .   S
Zn71        O78 1.922       .   S
Zn71        O82 1.922       .   S
Zn72        O74 1.942       .   S
Zn72        O77 1.922       .   S
Zn72        O80 1.922       .   S
Zn72        O83 1.922       .   S
Zn73        O74 1.942       .   S
Zn73        O81 1.922       .   S
Zn73        O84 1.922       .   S
Zn73        O85 1.922       .   S
O75         C87 1.304       .   A
O76         C88 1.304       .   A
O77         C89 1.304       .   A
O78         C87 1.304       .   A
O79         C89 1.304       .   A
O80         C88 1.304       .   A
O81         C90 1.304       .   A
O82         C91 1.304       .   A
O83         C90 1.304       .   A
O84         C91 1.304       .   A
O85         C92 1.304       .   A
O86         C92 1.304       .   A
C87        C439 1.540       .   S
C88        C475 1.540       .   S
C89        C642 1.540       .   S
C90        C468 1.540   1_565   S
C91        C591 1.540       .   S
C92        C504 1.540   1_556   S
Zn93        O97 1.942       .   S
Zn93        O98 1.922       .   S
Zn93       O102 1.922       .   S
Zn93       O109 1.922       .   S
Zn94        O97 1.942       .   S
Zn94        O99 1.922       .   S
Zn94       O101 1.922       .   S
Zn94       O105 1.922       .   S
Zn95        O97 1.942       .   S
Zn95       O100 1.922       .   S
Zn95       O103 1.922       .   S
Zn95       O106 1.922       .   S
Zn96        O97 1.942       .   S
Zn96       O104 1.922       .   S
Zn96       O107 1.922       .   S
Zn96       O108 1.922       .   S
O98        C110 1.304       .   A
O99        C111 1.304       .   A
O100       C112 1.304       .   A
O101       C110 1.304       .   A
O102       C112 1.304       .   A
O103       C111 1.304       .   A
O104       C113 1.304       .   A
O105       C114 1.304       .   A
O106       C113 1.304       .   A
O107       C114 1.304       .   A
O108       C115 1.304       .   A
O109       C115 1.304       .   A
C110       C243 1.540   1_565   S
C111       C758 1.540       .   S
C112       C678 1.540       .   S
C113       C294 1.540   1_665   S
C114       C649 1.540       .   S
C115       C729 1.540       .   S
Zn116      O120 1.942       .   S
Zn116      O121 1.922       .   S
Zn116      O125 1.922       .   S
Zn116      O132 1.922       .   S
Zn117      O120 1.942       .   S
Zn117      O122 1.922       .   S
Zn117      O124 1.922       .   S
Zn117      O128 1.922       .   S
Zn118      O120 1.942       .   S
Zn118      O123 1.922       .   S
Zn118      O126 1.922       .   S
Zn118      O129 1.922       .   S
Zn119      O120 1.942       .   S
Zn119      O127 1.922       .   S
Zn119      O130 1.922       .   S
Zn119      O131 1.922       .   S
O121       C133 1.304       .   A
O122       C134 1.304       .   A
O123       C135 1.304       .   A
O124       C133 1.304       .   A
O125       C135 1.304       .   A
O126       C134 1.304       .   A
O127       C136 1.304       .   A
O128       C137 1.304       .   A
O129       C136 1.304       .   A
O130       C137 1.304       .   A
O131       C138 1.304       .   A
O132       C138 1.304       .   A
C133       C816 1.540       .   S
C134       C381 1.540   1_465   S
C135       C700 1.540   1_556   S
C136       C765 1.540       .   S
C137       C671 1.540       .   S
C138       C410 1.540   1_565   S
Zn139      O143 1.942       .   S
Zn139      O144 1.922       .   S
Zn139      O148 1.922       .   S
Zn139      O155 1.922       .   S
Zn140      O143 1.942       .   S
Zn140      O145 1.922       .   S
Zn140      O147 1.922       .   S
Zn140      O151 1.922       .   S
Zn141      O143 1.942       .   S
Zn141      O146 1.922       .   S
Zn141      O149 1.922       .   S
Zn141      O152 1.922       .   S
Zn142      O143 1.942       .   S
Zn142      O150 1.922       .   S
Zn142      O153 1.922       .   S
Zn142      O154 1.922       .   S
O144       C156 1.304       .   A
O145       C157 1.304       .   A
O146       C158 1.304       .   A
O147       C156 1.304       .   A
O148       C158 1.304       .   A
O149       C157 1.304       .   A
O150       C159 1.304       .   A
O151       C160 1.304       .   A
O152       C159 1.304       .   A
O153       C160 1.304       .   A
O154       C161 1.304       .   A
O155       C161 1.304       .   A
C156       C707 1.540   1_545   S
C157       C555 1.540   1_455   S
C158       C823 1.540       .   S
C159       C736 1.540       .   S
C160       C874 1.540       .   S
C161       C584 1.540       .   S
Zn162      O166 1.942       .   S
Zn162      O167 1.922       .   S
Zn162      O171 1.922       .   S
Zn162      O178 1.922       .   S
Zn163      O166 1.942       .   S
Zn163      O168 1.922       .   S
Zn163      O170 1.922       .   S
Zn163      O174 1.922       .   S
Zn164      O166 1.942       .   S
Zn164      O169 1.922       .   S
Zn164      O172 1.922       .   S
Zn164      O175 1.922       .   S
Zn165      O166 1.942       .   S
Zn165      O173 1.922       .   S
Zn165      O176 1.922       .   S
Zn165      O177 1.922       .   S
O167       C179 1.304       .   A
O168       C180 1.304       .   A
O169       C181 1.304       .   A
O170       C179 1.304       .   A
O171       C181 1.304       .   A
O172       C180 1.304       .   A
O173       C182 1.304       .   A
O174       C183 1.304       .   A
O175       C182 1.304       .   A
O176       C183 1.304       .   A
O177       C184 1.304       .   A
O178       C184 1.304       .   A
C179       C613 1.540   1_455   S
C180       C787 1.540   1_545   S
C181       C845 1.540       .   S
C182       C620 1.540       .   S
C183       C852 1.540   1_556   S
C184       C794 1.540       .   S
C852       C853 0.031       .   A
C852       C857 0.031       .   A
C853       C854 0.031       .   A
C853       O880 0.032       .   A
C854       C855 0.031       .   A
C854       H859 0.025       .   A
C855       C856 0.031       .   A
C855       C858 0.036       .   A
C856       C857 0.031       .   A
C856      Cl862 0.040       .   A
C857       H861 0.025       .   A
C858       O863 0.034       .   A
C858       C865 0.036       .   A
C858       H873 0.025       .   A
C860       H877 0.025       .   A
C860       H878 0.025       .   A
C860       H879 0.025       .   A
C860       O880 0.034       .   A
O863       C872 0.034       .   A
C864       C865 0.035       .   A
C864       H868 0.025       .   A
C864       H869 0.025       .   A
C864       C872 0.036       .   A
C865       H867 0.025       .   A
C865       H870 0.025       .   A
C866       C872 0.035       .   A
C866       C874 0.031       .   A
C866       H876 0.025       .   A
H871       C872 0.025       .   A
C874       H875 0.025       .   A
C823       C824 0.031       .   A
C823       C828 0.031       .   A
C824       C825 0.031       .   A
C824       O851 0.032       .   A
C825       C826 0.031       .   A
C825       H830 0.025       .   A
C826       C827 0.031       .   A
C826       C829 0.036       .   A
C827       C828 0.031       .   A
C827      Cl833 0.040       .   A
C828       H832 0.025       .   A
C829       O834 0.034       .   A
C829       C836 0.036       .   A
C829       H844 0.025       .   A
C831       H848 0.025       .   A
C831       H849 0.025       .   A
C831       H850 0.025       .   A
C831       O851 0.034       .   A
O834       C843 0.034       .   A
C835       C836 0.035       .   A
C835       H839 0.025       .   A
C835       H840 0.025       .   A
C835       C843 0.036       .   A
C836       H838 0.025       .   A
C836       H841 0.025       .   A
C837       C843 0.035       .   A
C837       C845 0.031       .   A
C837       H847 0.025       .   A
H842       C843 0.025       .   A
C845       H846 0.025       .   A
C794       C795 0.031       .   A
C794       C799 0.031       .   A
C795       C796 0.031       .   A
C795       O822 0.032       .   A
C796       C797 0.031       .   A
C796       H801 0.025       .   A
C797       C798 0.031       .   A
C797       C800 0.036       .   A
C798       C799 0.031       .   A
C798      Cl804 0.040       .   A
C799       H803 0.025       .   A
C800       O805 0.034       .   A
C800       C807 0.036       .   A
C800       H815 0.025       .   A
C802       H819 0.025       .   A
C802       H820 0.025       .   A
C802       H821 0.025       .   A
C802       O822 0.034       .   A
O805       C814 0.034       .   A
C806       C807 0.035       .   A
C806       H810 0.025       .   A
C806       H811 0.025       .   A
C806       C814 0.036       .   A
C807       H809 0.025       .   A
C807       H812 0.025       .   A
C808       C814 0.035       .   A
C808       C816 0.031       .   A
C808       H818 0.025       .   A
H813       C814 0.025       .   A
C816       H817 0.025       .   A
C765       C766 0.031       .   A
C765       C770 0.031       .   A
C766       C767 0.031       .   A
C766       O793 0.032       .   A
C767       C768 0.031       .   A
C767       H772 0.025       .   A
C768       C769 0.031       .   A
C768       C771 0.036       .   A
C769       C770 0.031       .   A
C769      Cl775 0.040       .   A
C770       H774 0.025       .   A
C771       O776 0.034       .   A
C771       C778 0.036       .   A
C771       H786 0.025       .   A
C773       H790 0.025       .   A
C773       H791 0.025       .   A
C773       H792 0.025       .   A
C773       O793 0.034       .   A
O776       C785 0.034       .   A
C777       C778 0.035       .   A
C777       H781 0.025       .   A
C777       H782 0.025       .   A
C777       C785 0.036       .   A
C778       H780 0.025       .   A
C778       H783 0.025       .   A
C779       C785 0.035       .   A
C779       C787 0.031       .   A
C779       H789 0.025       .   A
H784       C785 0.025       .   A
C787       H788 0.025       .   A
C736       C737 0.031       .   A
C736       C741 0.031       .   A
C737       C738 0.031       .   A
C737       O764 0.032       .   A
C738       C739 0.031       .   A
C738       H743 0.025       .   A
C739       C740 0.031       .   A
C739       C742 0.036       .   A
C740       C741 0.031       .   A
C740      Cl746 0.040       .   A
C741       H745 0.025       .   A
C742       O747 0.034       .   A
C742       C749 0.036       .   A
C742       H757 0.025       .   A
C744       H761 0.025       .   A
C744       H762 0.025       .   A
C744       H763 0.025       .   A
C744       O764 0.034       .   A
O747       C756 0.034       .   A
C748       C749 0.035       .   A
C748       H752 0.025       .   A
C748       H753 0.025       .   A
C748       C756 0.036       .   A
C749       H751 0.025       .   A
C749       H754 0.025       .   A
C750       C756 0.035       .   A
C750       C758 0.031       .   A
C750       H760 0.025       .   A
H755       C756 0.025       .   A
C758       H759 0.025       .   A
C707       C708 0.031       .   A
C707       C712 0.031       .   A
C708       C709 0.031       .   A
C708       O735 0.032       .   A
C709       C710 0.031       .   A
C709       H714 0.025       .   A
C710       C711 0.031       .   A
C710       C713 0.036       .   A
C711       C712 0.031       .   A
C711      Cl717 0.040       .   A
C712       H716 0.025       .   A
C713       O718 0.034       .   A
C713       C720 0.036       .   A
C713       H728 0.025       .   A
C715       H732 0.025       .   A
C715       H733 0.025       .   A
C715       H734 0.025       .   A
C715       O735 0.034       .   A
O718       C727 0.034       .   A
C719       C720 0.035       .   A
C719       H723 0.025       .   A
C719       H724 0.025       .   A
C719       C727 0.036       .   A
C720       H722 0.025       .   A
C720       H725 0.025       .   A
C721       C727 0.035       .   A
C721       C729 0.031       .   A
C721       H731 0.025       .   A
H726       C727 0.025       .   A
C729       H730 0.025       .   A
C678       C679 0.031       .   A
C678       C683 0.031       .   A
C679       C680 0.031       .   A
C679       O706 0.032       .   A
C680       C681 0.031       .   A
C680       H685 0.025       .   A
C681       C682 0.031       .   A
C681       C684 0.036       .   A
C682       C683 0.031       .   A
C682      Cl688 0.040       .   A
C683       H687 0.025       .   A
C684       O689 0.034       .   A
C684       C691 0.036       .   A
C684       H699 0.025       .   A
C686       H703 0.025       .   A
C686       H704 0.025       .   A
C686       H705 0.025       .   A
C686       O706 0.034       .   A
O689       C698 0.034       .   A
C690       C691 0.035       .   A
C690       H694 0.025       .   A
C690       H695 0.025       .   A
C690       C698 0.036       .   A
C691       H693 0.025       .   A
C691       H696 0.025       .   A
C692       C698 0.035       .   A
C692       C700 0.031       .   A
C692       H702 0.025       .   A
H697       C698 0.025       .   A
C700       H701 0.025       .   A
C649       C650 0.031       .   A
C649       C654 0.031       .   A
C650       C651 0.031       .   A
C650       O677 0.032       .   A
C651       C652 0.031       .   A
C651       H656 0.025       .   A
C652       C653 0.031       .   A
C652       C655 0.036       .   A
C653       C654 0.031       .   A
C653      Cl659 0.040       .   A
C654       H658 0.025       .   A
C655       O660 0.034       .   A
C655       C662 0.036       .   A
C655       H670 0.025       .   A
C657       H674 0.025       .   A
C657       H675 0.025       .   A
C657       H676 0.025       .   A
C657       O677 0.034       .   A
O660       C669 0.034       .   A
C661       C662 0.035       .   A
C661       H665 0.025       .   A
C661       H666 0.025       .   A
C661       C669 0.036       .   A
C662       H664 0.025       .   A
C662       H667 0.025       .   A
C663       C669 0.035       .   A
C663       C671 0.031       .   A
C663       H673 0.025       .   A
H668       C669 0.025       .   A
C671       H672 0.025       .   A
C620       C621 0.031       .   A
C620       C625 0.031       .   A
C621       C622 0.031       .   A
C621       O648 0.032       .   A
C622       C623 0.031       .   A
C622       H627 0.025       .   A
C623       C624 0.031       .   A
C623       C626 0.036       .   A
C624       C625 0.031       .   A
C624      Cl630 0.040       .   A
C625       H629 0.025       .   A
C626       O631 0.034       .   A
C626       C633 0.036       .   A
C626       H641 0.025       .   A
C628       H645 0.025       .   A
C628       H646 0.025       .   A
C628       H647 0.025       .   A
C628       O648 0.034       .   A
O631       C640 0.034       .   A
C632       C633 0.035       .   A
C632       H636 0.025       .   A
C632       H637 0.025       .   A
C632       C640 0.036       .   A
C633       H635 0.025       .   A
C633       H638 0.025       .   A
C634       C640 0.035       .   A
C634       C642 0.031       .   A
C634       H644 0.025       .   A
H639       C640 0.025       .   A
C642       H643 0.025       .   A
C591       C592 0.031       .   A
C591       C596 0.031       .   A
C592       C593 0.031       .   A
C592       O619 0.032       .   A
C593       C594 0.031       .   A
C593       H598 0.025       .   A
C594       C595 0.031       .   A
C594       C597 0.036       .   A
C595       C596 0.031       .   A
C595      Cl601 0.040       .   A
C596       H600 0.025       .   A
C597       O602 0.034       .   A
C597       C604 0.036       .   A
C597       H612 0.025       .   A
C599       H616 0.025       .   A
C599       H617 0.025       .   A
C599       H618 0.025       .   A
C599       O619 0.034       .   A
O602       C611 0.034       .   A
C603       C604 0.035       .   A
C603       H607 0.025       .   A
C603       H608 0.025       .   A
C603       C611 0.036       .   A
C604       H606 0.025       .   A
C604       H609 0.025       .   A
C605       C611 0.035       .   A
C605       C613 0.031       .   A
C605       H615 0.025       .   A
H610       C611 0.025       .   A
C613       H614 0.025       .   A
C562       C563 0.031       .   A
C562       C567 0.031       .   A
C563       C564 0.031       .   A
C563       O590 0.032       .   A
C564       C565 0.031       .   A
C564       H569 0.025       .   A
C565       C566 0.031       .   A
C565       C568 0.036       .   A
C566       C567 0.031       .   A
C566      Cl572 0.040       .   A
C567       H571 0.025       .   A
C568       O573 0.034       .   A
C568       C575 0.036       .   A
C568       H583 0.025       .   A
C570       H587 0.025       .   A
C570       H588 0.025       .   A
C570       H589 0.025       .   A
C570       O590 0.034       .   A
O573       C582 0.034       .   A
C574       C575 0.035       .   A
C574       H578 0.025       .   A
C574       H579 0.025       .   A
C574       C582 0.036       .   A
C575       H577 0.025       .   A
C575       H580 0.025       .   A
C576       C582 0.035       .   A
C576       C584 0.031       .   A
C576       H586 0.025       .   A
H581       C582 0.025       .   A
C584       H585 0.025       .   A
C533       C534 0.031       .   A
C533       C538 0.031       .   A
C534       C535 0.031       .   A
C534       O561 0.032       .   A
C535       C536 0.031       .   A
C535       H540 0.025       .   A
C536       C537 0.031       .   A
C536       C539 0.036       .   A
C537       C538 0.031       .   A
C537      Cl543 0.040       .   A
C538       H542 0.025       .   A
C539       O544 0.034       .   A
C539       C546 0.036       .   A
C539       H554 0.025       .   A
C541       H558 0.025       .   A
C541       H559 0.025       .   A
C541       H560 0.025       .   A
C541       O561 0.034       .   A
O544       C553 0.034       .   A
C545       C546 0.035       .   A
C545       H549 0.025       .   A
C545       H550 0.025       .   A
C545       C553 0.036       .   A
C546       H548 0.025       .   A
C546       H551 0.025       .   A
C547       C553 0.035       .   A
C547       C555 0.031       .   A
C547       H557 0.025       .   A
H552       C553 0.025       .   A
C555       H556 0.025       .   A
C504       C505 0.031       .   A
C504       C509 0.031       .   A
C505       C506 0.031       .   A
C505       O532 0.032       .   A
C506       C507 0.031       .   A
C506       H511 0.025       .   A
C507       C508 0.031       .   A
C507       C510 0.036       .   A
C508       C509 0.031       .   A
C508      Cl514 0.040       .   A
C509       H513 0.025       .   A
C510       O515 0.034       .   A
C510       C517 0.036       .   A
C510       H525 0.025       .   A
C512       H529 0.025       .   A
C512       H530 0.025       .   A
C512       H531 0.025       .   A
C512       O532 0.034       .   A
O515       C524 0.034       .   A
C516       C517 0.035       .   A
C516       H520 0.025       .   A
C516       H521 0.025       .   A
C516       C524 0.036       .   A
C517       H519 0.025       .   A
C517       H522 0.025       .   A
C518       C524 0.035       .   A
C518       C526 0.031       .   A
C518       H528 0.025       .   A
H523       C524 0.025       .   A
C526       H527 0.025       .   A
C475       C476 0.031       .   A
C475       C480 0.031       .   A
C476       C477 0.031       .   A
C476       O503 0.032       .   A
C477       C478 0.031       .   A
C477       H482 0.025       .   A
C478       C479 0.031       .   A
C478       C481 0.036       .   A
C479       C480 0.031       .   A
C479      Cl485 0.040       .   A
C480       H484 0.025       .   A
C481       O486 0.034       .   A
C481       C488 0.036       .   A
C481       H496 0.025       .   A
C483       H500 0.025       .   A
C483       H501 0.025       .   A
C483       H502 0.025       .   A
C483       O503 0.034       .   A
O486       C495 0.034       .   A
C487       C488 0.035       .   A
C487       H491 0.025       .   A
C487       H492 0.025       .   A
C487       C495 0.036       .   A
C488       H490 0.025       .   A
C488       H493 0.025       .   A
C489       C495 0.035       .   A
C489       C497 0.031       .   A
C489       H499 0.025       .   A
H494       C495 0.025       .   A
C497       H498 0.025       .   A
C446       C447 0.031       .   A
C446       C451 0.031       .   A
C447       C448 0.031       .   A
C447       O474 0.032       .   A
C448       C449 0.031       .   A
C448       H453 0.025       .   A
C449       C450 0.031       .   A
C449       C452 0.036       .   A
C450       C451 0.031       .   A
C450      Cl456 0.040       .   A
C451       H455 0.025       .   A
C452       O457 0.034       .   A
C452       C459 0.036       .   A
C452       H467 0.025       .   A
C454       H471 0.025       .   A
C454       H472 0.025       .   A
C454       H473 0.025       .   A
C454       O474 0.034       .   A
O457       C466 0.034       .   A
C458       C459 0.035       .   A
C458       H462 0.025       .   A
C458       H463 0.025       .   A
C458       C466 0.036       .   A
C459       H461 0.025       .   A
C459       H464 0.025       .   A
C460       C466 0.035       .   A
C460       C468 0.031       .   A
C460       H470 0.025       .   A
H465       C466 0.025       .   A
C468       H469 0.025       .   A
C417       C418 0.031       .   A
C417       C422 0.031       .   A
C418       C419 0.031       .   A
C418       O445 0.032       .   A
C419       C420 0.031       .   A
C419       H424 0.025       .   A
C420       C421 0.031       .   A
C420       C423 0.036       .   A
C421       C422 0.031       .   A
C421      Cl427 0.040       .   A
C422       H426 0.025       .   A
C423       O428 0.034       .   A
C423       C430 0.036       .   A
C423       H438 0.025       .   A
C425       H442 0.025       .   A
C425       H443 0.025       .   A
C425       H444 0.025       .   A
C425       O445 0.034       .   A
O428       C437 0.034       .   A
C429       C430 0.035       .   A
C429       H433 0.025       .   A
C429       H434 0.025       .   A
C429       C437 0.036       .   A
C430       H432 0.025       .   A
C430       H435 0.025       .   A
C431       C437 0.035       .   A
C431       C439 0.031       .   A
C431       H441 0.025       .   A
H436       C437 0.025       .   A
C439       H440 0.025       .   A
C388       C389 0.031       .   A
C388       C393 0.031       .   A
C389       C390 0.031       .   A
C389       O416 0.032       .   A
C390       C391 0.031       .   A
C390       H395 0.025       .   A
C391       C392 0.031       .   A
C391       C394 0.036       .   A
C392       C393 0.031       .   A
C392      Cl398 0.040       .   A
C393       H397 0.025       .   A
C394       O399 0.034       .   A
C394       C401 0.036       .   A
C394       H409 0.025       .   A
C396       H413 0.025       .   A
C396       H414 0.025       .   A
C396       H415 0.025       .   A
C396       O416 0.034       .   A
O399       C408 0.034       .   A
C400       C401 0.035       .   A
C400       H404 0.025       .   A
C400       H405 0.025       .   A
C400       C408 0.036       .   A
C401       H403 0.025       .   A
C401       H406 0.025       .   A
C402       C408 0.035       .   A
C402       C410 0.031       .   A
C402       H412 0.025       .   A
H407       C408 0.025       .   A
C410       H411 0.025       .   A
C359       C360 0.031       .   A
C359       C364 0.031       .   A
C360       C361 0.031       .   A
C360       O387 0.032       .   A
C361       C362 0.031       .   A
C361       H366 0.025       .   A
C362       C363 0.031       .   A
C362       C365 0.036       .   A
C363       C364 0.031       .   A
C363      Cl369 0.040       .   A
C364       H368 0.025       .   A
C365       O370 0.034       .   A
C365       C372 0.036       .   A
C365       H380 0.025       .   A
C367       H384 0.025       .   A
C367       H385 0.025       .   A
C367       H386 0.025       .   A
C367       O387 0.034       .   A
O370       C379 0.034       .   A
C371       C372 0.035       .   A
C371       H375 0.025       .   A
C371       H376 0.025       .   A
C371       C379 0.036       .   A
C372       H374 0.025       .   A
C372       H377 0.025       .   A
C373       C379 0.035       .   A
C373       C381 0.031       .   A
C373       H383 0.025       .   A
H378       C379 0.025       .   A
C381       H382 0.025       .   A
C330       C331 0.031       .   A
C330       C335 0.031       .   A
C331       C332 0.031       .   A
C331       O358 0.032       .   A
C332       C333 0.031       .   A
C332       H337 0.025       .   A
C333       C334 0.031       .   A
C333       C336 0.036       .   A
C334       C335 0.031       .   A
C334      Cl340 0.040       .   A
C335       H339 0.025       .   A
C336       O341 0.034       .   A
C336       C343 0.036       .   A
C336       H351 0.025       .   A
C338       H355 0.025       .   A
C338       H356 0.025       .   A
C338       H357 0.025       .   A
C338       O358 0.034       .   A
O341       C350 0.034       .   A
C342       C343 0.035       .   A
C342       H346 0.025       .   A
C342       H347 0.025       .   A
C342       C350 0.036       .   A
C343       H345 0.025       .   A
C343       H348 0.025       .   A
C344       C350 0.035       .   A
C344       C352 0.031       .   A
C344       H354 0.025       .   A
H349       C350 0.025       .   A
C352       H353 0.025       .   A
C301       C302 0.031       .   A
C301       C306 0.031       .   A
C302       C303 0.031       .   A
C302       O329 0.032       .   A
C303       C304 0.031       .   A
C303       H308 0.025       .   A
C304       C305 0.031       .   A
C304       C307 0.036       .   A
C305       C306 0.031       .   A
C305      Cl311 0.040       .   A
C306       H310 0.025       .   A
C307       O312 0.034       .   A
C307       C314 0.036       .   A
C307       H322 0.025       .   A
C309       H326 0.025       .   A
C309       H327 0.025       .   A
C309       H328 0.025       .   A
C309       O329 0.034       .   A
O312       C321 0.034       .   A
C313       C314 0.035       .   A
C313       H317 0.025       .   A
C313       H318 0.025       .   A
C313       C321 0.036       .   A
C314       H316 0.025       .   A
C314       H319 0.025       .   A
C315       C321 0.035       .   A
C315       C323 0.031       .   A
C315       H325 0.025       .   A
H320       C321 0.025       .   A
C323       H324 0.025       .   A
C272       C273 0.031       .   A
C272       C277 0.031       .   A
C273       C274 0.031       .   A
C273       O300 0.032       .   A
C274       C275 0.031       .   A
C274       H279 0.025       .   A
C275       C276 0.031       .   A
C275       C278 0.036       .   A
C276       C277 0.031       .   A
C276      Cl282 0.040       .   A
C277       H281 0.025       .   A
C278       O283 0.034       .   A
C278       C285 0.036       .   A
C278       H293 0.025       .   A
C280       H297 0.025       .   A
C280       H298 0.025       .   A
C280       H299 0.025       .   A
C280       O300 0.034       .   A
O283       C292 0.034       .   A
C284       C285 0.035       .   A
C284       H288 0.025       .   A
C284       H289 0.025       .   A
C284       C292 0.036       .   A
C285       H287 0.025       .   A
C285       H290 0.025       .   A
C286       C292 0.035       .   A
C286       C294 0.031       .   A
C286       H296 0.025       .   A
H291       C292 0.025       .   A
C294       H295 0.025       .   A
C243       C244 0.031       .   A
C243       C248 0.031       .   A
C244       C245 0.031       .   A
C244       O271 0.032       .   A
C245       C246 0.031       .   A
C245       H250 0.025       .   A
C246       C247 0.031       .   A
C246       C249 0.036       .   A
C247       C248 0.031       .   A
C247      Cl253 0.040       .   A
C248       H252 0.025       .   A
C249       O254 0.034       .   A
C249       C256 0.036       .   A
C249       H264 0.025       .   A
C251       H268 0.025       .   A
C251       H269 0.025       .   A
C251       H270 0.025       .   A
C251       O271 0.034       .   A
O254       C263 0.034       .   A
C255       C256 0.035       .   A
C255       H259 0.025       .   A
C255       H260 0.025       .   A
C255       C263 0.036       .   A
C256       H258 0.025       .   A
C256       H261 0.025       .   A
C257       C263 0.035       .   A
C257       C265 0.031       .   A
C257       H267 0.025       .   A
H262       C263 0.025       .   A
C265       H266 0.025       .   A
C214       C215 0.031       .   A
C214       C219 0.031       .   A
C215       C216 0.031       .   A
C215       O242 0.032       .   A
C216       C217 0.031       .   A
C216       H221 0.025       .   A
C217       C218 0.031       .   A
C217       C220 0.036       .   A
C218       C219 0.031       .   A
C218      Cl224 0.040       .   A
C219       H223 0.025       .   A
C220       O225 0.034       .   A
C220       C227 0.036       .   A
C220       H235 0.025       .   A
C222       H239 0.025       .   A
C222       H240 0.025       .   A
C222       H241 0.025       .   A
C222       O242 0.034       .   A
O225       C234 0.034       .   A
C226       C227 0.035       .   A
C226       H230 0.025       .   A
C226       H231 0.025       .   A
C226       C234 0.036       .   A
C227       H229 0.025       .   A
C227       H232 0.025       .   A
C228       C234 0.035       .   A
C228       C236 0.031       .   A
C228       H238 0.025       .   A
H233       C234 0.025       .   A
C236       H237 0.025       .   A
C185       C186 0.031       .   A
C185       C190 0.031       .   A
C186       C187 0.031       .   A
C186       O213 0.032       .   A
C187       C188 0.031       .   A
C187       H192 0.025       .   A
C188       C189 0.031       .   A
C188       C191 0.036       .   A
C189       C190 0.031       .   A
C189      Cl195 0.040       .   A
C190       H194 0.025       .   A
C191       O196 0.034       .   A
C191       C198 0.036       .   A
C191       H206 0.025       .   A
C193       H210 0.025       .   A
C193       H211 0.025       .   A
C193       H212 0.025       .   A
C193       O213 0.034       .   A
O196       C205 0.034       .   A
C197       C198 0.035       .   A
C197       H201 0.025       .   A
C197       H202 0.025       .   A
C197       C205 0.036       .   A
C198       H200 0.025       .   A
C198       H203 0.025       .   A
C199       C205 0.035       .   A
C199       C207 0.031       .   A
C199       H209 0.025       .   A
H204       C205 0.025       .   A
C207       H208 0.025       .   A
