data_pcu_v1-6c_Zn_1_Ch_1-97_fer_tobacco
_audit_creation_date              2021-02-03
_audit_creation_method            'tobacco_3.0'
_symmetry_space_group_name_H-M    'P1'
_symmetry_Int_Tables_number       1
_symmetry_cell_setting            triclinic
loop_
_symmetry_equiv_pos_as_xyz
  x,y,z
_cell_length_a                    36.759843452968155
_cell_length_b                    36.759843452968155
_cell_length_c                    36.759843452968155
_cell_angle_alpha                 90.0
_cell_angle_beta                  90.0
_cell_angle_gamma                 90.0
loop_
_atom_site_label
_atom_site_type_symbol
_atom_site_fract_x
_atom_site_fract_y
_atom_site_fract_z
_atom_site_charge
Zn1       Zn   -0.0305006740   -0.0305006740    0.0305006740          1.4972
Zn2       Zn    0.0305006740    0.0305006740    0.0305006740          1.4936
Zn3       Zn    0.0305006740   -0.0305006740   -0.0305006740          1.4911
Zn4       Zn   -0.0305006740    0.0305006740   -0.0305006740          1.4948
O5         O    0.0000000000    0.0000000000    0.0000000000         -2.2025
O6         O   -0.0224157647   -0.0224157647    0.0815183015         -1.1088
O7         O    0.0815183015    0.0224157647    0.0224157647          -1.107
O8         O    0.0224157647   -0.0815183015   -0.0224157647         -1.1022
O9         O    0.0224157647    0.0224157647    0.0815183015          -1.109
O10        O   -0.0224157647   -0.0815183015    0.0224157647          -1.105
O11        O    0.0815183015   -0.0224157647   -0.0224157647         -1.1108
O12        O   -0.0224157647    0.0224157647   -0.0815183015         -1.1047
O13        O    0.0224157647    0.0815183015    0.0224157647         -1.1123
O14        O    0.0224157647   -0.0224157647   -0.0815183015         -1.1062
O15        O   -0.0224157647    0.0815183015   -0.0224157647         -1.1109
O16        O   -0.0815183015    0.0224157647   -0.0224157647           -1.11
O17        O   -0.0815183015   -0.0224157647    0.0224157647         -1.1078
C18        C   -0.0000000000   -0.0000000000    0.0974650505          0.4101
C19        C    0.0974650505   -0.0000000000   -0.0000000000           0.415
C20        C   -0.0000000000   -0.0974650505    0.0000000000          0.4046
C21        C    0.0000000000    0.0000000000   -0.0974650505          0.4083
C22        C    0.0000000000    0.0974650505   -0.0000000000          0.4197
C23        C   -0.0974650505    0.0000000000    0.0000000000          0.4102
Zn24      Zn    0.9694993260    0.0305006740    0.4694993260          1.4972
Zn25      Zn    1.0305006740   -0.0305006740    0.4694993260          1.4936
Zn26      Zn    1.0305006740    0.0305006740    0.5305006740          1.4911
Zn27      Zn    0.9694993260   -0.0305006740    0.5305006740          1.4948
O28        O    1.0000000000    0.0000000000    0.5000000000         -2.2025
O29        O    0.9775842353    0.0224157647    0.4184816985         -1.1088
O30        O    1.0815183015   -0.0224157647    0.4775842353          -1.107
O31        O    1.0224157647    0.0815183015    0.5224157647         -1.1022
O32        O    1.0224157647   -0.0224157647    0.4184816985          -1.109
O33        O    0.9775842353    0.0815183015    0.4775842353          -1.105
O34        O    1.0815183015    0.0224157647    0.5224157647         -1.1108
O35        O    0.9775842353   -0.0224157647    0.5815183015         -1.1047
O36        O    1.0224157647   -0.0815183015    0.4775842353         -1.1123
O37        O    1.0224157647    0.0224157647    0.5815183015         -1.1062
O38        O    0.9775842353   -0.0815183015    0.5224157647         -1.1109
O39        O    0.9184816985   -0.0224157647    0.5224157647           -1.11
O40        O    0.9184816985    0.0224157647    0.4775842353         -1.1078
C41        C    1.0000000000    0.0000000000    0.4025349495          0.4101
C42        C    1.0974650505    0.0000000000    0.5000000000           0.415
C43        C    1.0000000000    0.0974650505    0.5000000000          0.4046
C44        C    1.0000000000    0.0000000000    0.5974650505          0.4083
C45        C    1.0000000000   -0.0974650505    0.5000000000          0.4197
C46        C    0.9025349495    0.0000000000    0.5000000000          0.4102
Zn47      Zn    1.0305006740    0.4694993260   -0.0305006740          1.4972
Zn48      Zn    0.9694993260    0.4694993260    0.0305006740          1.4936
Zn49      Zn    1.0305006740    0.5305006740    0.0305006740          1.4911
Zn50      Zn    0.9694993260    0.5305006740   -0.0305006740          1.4948
O51        O    1.0000000000    0.5000000000    0.0000000000         -2.2025
O52        O    1.0224157647    0.4184816985   -0.0224157647         -1.1088
O53        O    0.9775842353    0.4775842353    0.0815183015          -1.107
O54        O    1.0815183015    0.5224157647    0.0224157647         -1.1022
O55        O    0.9775842353    0.4184816985    0.0224157647          -1.109
O56        O    1.0815183015    0.4775842353   -0.0224157647          -1.105
O57        O    1.0224157647    0.5224157647    0.0815183015         -1.1108
O58        O    0.9775842353    0.5815183015   -0.0224157647         -1.1047
O59        O    0.9184816985    0.4775842353    0.0224157647         -1.1123
O60        O    1.0224157647    0.5815183015    0.0224157647         -1.1062
O61        O    0.9184816985    0.5224157647   -0.0224157647         -1.1109
O62        O    0.9775842353    0.5224157647   -0.0815183015           -1.11
O63        O    1.0224157647    0.4775842353   -0.0815183015         -1.1078
C64        C    1.0000000000    0.4025349495    0.0000000000          0.4101
C65        C    1.0000000000    0.5000000000    0.0974650505           0.415
C66        C    1.0974650505    0.5000000000    0.0000000000          0.4046
C67        C    1.0000000000    0.5974650505    0.0000000000          0.4083
C68        C    0.9025349495    0.5000000000    0.0000000000          0.4197
C69        C    1.0000000000    0.5000000000   -0.0974650505          0.4102
Zn70      Zn    0.9694993260    0.4694993260    0.5305006740          1.4972
Zn71      Zn    1.0305006740    0.4694993260    0.4694993260          1.4936
Zn72      Zn    0.9694993260    0.5305006740    0.4694993260          1.4911
Zn73      Zn    1.0305006740    0.5305006740    0.5305006740          1.4948
O74        O    1.0000000000    0.5000000000    0.5000000000         -2.2025
O75        O    0.9775842353    0.4184816985    0.5224157647         -1.1088
O76        O    1.0224157647    0.4775842353    0.4184816985          -1.107
O77        O    0.9184816985    0.5224157647    0.4775842353         -1.1022
O78        O    1.0224157647    0.4184816985    0.4775842353          -1.109
O79        O    0.9184816985    0.4775842353    0.5224157647          -1.105
O80        O    0.9775842353    0.5224157647    0.4184816985         -1.1108
O81        O    1.0224157647    0.5815183015    0.5224157647         -1.1047
O82        O    1.0815183015    0.4775842353    0.4775842353         -1.1123
O83        O    0.9775842353    0.5815183015    0.4775842353         -1.1062
O84        O    1.0815183015    0.5224157647    0.5224157647         -1.1109
O85        O    1.0224157647    0.5224157647    0.5815183015           -1.11
O86        O    0.9775842353    0.4775842353    0.5815183015         -1.1078
C87        C    1.0000000000    0.4025349495    0.5000000000          0.4101
C88        C    1.0000000000    0.5000000000    0.4025349495           0.415
C89        C    0.9025349495    0.5000000000    0.5000000000          0.4046
C90        C    1.0000000000    0.5974650505    0.5000000000          0.4083
C91        C    1.0974650505    0.5000000000    0.5000000000          0.4197
C92        C    1.0000000000    0.5000000000    0.5974650505          0.4102
Zn93      Zn    0.4694993260    1.0305006740   -0.0305006740          1.4972
Zn94      Zn    0.4694993260    0.9694993260    0.0305006740          1.4936
Zn95      Zn    0.5305006740    0.9694993260   -0.0305006740          1.4911
Zn96      Zn    0.5305006740    1.0305006740    0.0305006740          1.4948
O97        O    0.5000000000    1.0000000000    0.0000000000         -2.2025
O98        O    0.4184816985    1.0224157647   -0.0224157647         -1.1088
O99        O    0.4775842353    0.9184816985    0.0224157647          -1.107
O100       O    0.5224157647    0.9775842353   -0.0815183015         -1.1022
O101       O    0.4184816985    0.9775842353    0.0224157647          -1.109
O102       O    0.4775842353    1.0224157647   -0.0815183015          -1.105
O103       O    0.5224157647    0.9184816985   -0.0224157647         -1.1108
O104       O    0.5815183015    1.0224157647    0.0224157647         -1.1047
O105       O    0.4775842353    0.9775842353    0.0815183015         -1.1123
O106       O    0.5815183015    0.9775842353   -0.0224157647         -1.1062
O107       O    0.5224157647    1.0224157647    0.0815183015         -1.1109
O108       O    0.5224157647    1.0815183015    0.0224157647           -1.11
O109       O    0.4775842353    1.0815183015   -0.0224157647         -1.1078
C110       C    0.4025349495    1.0000000000    0.0000000000          0.4101
C111       C    0.5000000000    0.9025349495    0.0000000000           0.415
C112       C    0.5000000000    1.0000000000   -0.0974650505          0.4046
C113       C    0.5974650505    1.0000000000    0.0000000000          0.4083
C114       C    0.5000000000    1.0000000000    0.0974650505          0.4197
C115       C    0.5000000000    1.0974650505    0.0000000000          0.4102
Zn116     Zn    0.4694993260    1.0305006740    0.5305006740          1.4972
Zn117     Zn    0.4694993260    0.9694993260    0.4694993260          1.4936
Zn118     Zn    0.5305006740    1.0305006740    0.4694993260          1.4911
Zn119     Zn    0.5305006740    0.9694993260    0.5305006740          1.4948
O120       O    0.5000000000    1.0000000000    0.5000000000         -2.2025
O121       O    0.4184816985    1.0224157647    0.5224157647         -1.1088
O122       O    0.4775842353    0.9775842353    0.4184816985          -1.107
O123       O    0.5224157647    1.0815183015    0.4775842353         -1.1022
O124       O    0.4184816985    0.9775842353    0.4775842353          -1.109
O125       O    0.4775842353    1.0815183015    0.5224157647          -1.105
O126       O    0.5224157647    1.0224157647    0.4184816985         -1.1108
O127       O    0.5815183015    0.9775842353    0.5224157647         -1.1047
O128       O    0.4775842353    0.9184816985    0.4775842353         -1.1123
O129       O    0.5815183015    1.0224157647    0.4775842353         -1.1062
O130       O    0.5224157647    0.9184816985    0.5224157647         -1.1109
O131       O    0.5224157647    0.9775842353    0.5815183015           -1.11
O132       O    0.4775842353    1.0224157647    0.5815183015         -1.1078
C133       C    0.4025349495    1.0000000000    0.5000000000          0.4101
C134       C    0.5000000000    1.0000000000    0.4025349495           0.415
C135       C    0.5000000000    1.0974650505    0.5000000000          0.4046
C136       C    0.5974650505    1.0000000000    0.5000000000          0.4083
C137       C    0.5000000000    0.9025349495    0.5000000000          0.4197
C138       C    0.5000000000    1.0000000000    0.5974650505          0.4102
Zn139     Zn    0.4694993260    0.5305006740   -0.0305006740          1.4972
Zn140     Zn    0.4694993260    0.4694993260    0.0305006740          1.4936
Zn141     Zn    0.5305006740    0.4694993260   -0.0305006740          1.4911
Zn142     Zn    0.5305006740    0.5305006740    0.0305006740          1.4948
O143       O    0.5000000000    0.5000000000    0.0000000000         -2.2025
O144       O    0.4184816985    0.5224157647   -0.0224157647         -1.1088
O145       O    0.4775842353    0.4184816985    0.0224157647          -1.107
O146       O    0.5224157647    0.4775842353   -0.0815183015         -1.1022
O147       O    0.4184816985    0.4775842353    0.0224157647          -1.109
O148       O    0.4775842353    0.5224157647   -0.0815183015          -1.105
O149       O    0.5224157647    0.4184816985   -0.0224157647         -1.1108
O150       O    0.5815183015    0.5224157647    0.0224157647         -1.1047
O151       O    0.4775842353    0.4775842353    0.0815183015         -1.1123
O152       O    0.5815183015    0.4775842353   -0.0224157647         -1.1062
O153       O    0.5224157647    0.5224157647    0.0815183015         -1.1109
O154       O    0.5224157647    0.5815183015    0.0224157647           -1.11
O155       O    0.4775842353    0.5815183015   -0.0224157647         -1.1078
C156       C    0.4025349495    0.5000000000    0.0000000000          0.4101
C157       C    0.5000000000    0.4025349495    0.0000000000           0.415
C158       C    0.5000000000    0.5000000000   -0.0974650505          0.4046
C159       C    0.5974650505    0.5000000000    0.0000000000          0.4083
C160       C    0.5000000000    0.5000000000    0.0974650505          0.4197
C161       C    0.5000000000    0.5974650505    0.0000000000          0.4102
Zn162     Zn    0.5305006740    0.5305006740    0.5305006740          1.4972
Zn163     Zn    0.4694993260    0.4694993260    0.5305006740          1.4936
Zn164     Zn    0.4694993260    0.5305006740    0.4694993260          1.4911
Zn165     Zn    0.5305006740    0.4694993260    0.4694993260          1.4948
O166       O    0.5000000000    0.5000000000    0.5000000000         -2.2025
O167       O    0.5224157647    0.5224157647    0.5815183015         -1.1088
O168       O    0.4184816985    0.4775842353    0.5224157647          -1.107
O169       O    0.4775842353    0.5815183015    0.4775842353         -1.1022
O170       O    0.4775842353    0.4775842353    0.5815183015          -1.109
O171       O    0.5224157647    0.5815183015    0.5224157647          -1.105
O172       O    0.4184816985    0.5224157647    0.4775842353         -1.1108
O173       O    0.5224157647    0.4775842353    0.4184816985         -1.1047
O174       O    0.4775842353    0.4184816985    0.5224157647         -1.1123
O175       O    0.4775842353    0.5224157647    0.4184816985         -1.1062
O176       O    0.5224157647    0.4184816985    0.4775842353         -1.1109
O177       O    0.5815183015    0.4775842353    0.4775842353           -1.11
O178       O    0.5815183015    0.5224157647    0.5224157647         -1.1078
C179       C    0.5000000000    0.5000000000    0.5974650505          0.4101
C180       C    0.4025349495    0.5000000000    0.5000000000           0.415
C181       C    0.5000000000    0.5974650505    0.5000000000          0.4046
C182       C    0.5000000000    0.5000000000    0.4025349495          0.4083
C183       C    0.5000000000    0.4025349495    0.5000000000          0.4197
C184       C    0.5974650505    0.5000000000    0.5000000000          0.4102
C668       C    0.5000000000    0.5000000000   -0.1393585913          0.6327
C669       C    0.5070463217    0.4719209607   -0.1621456288           0.627
C670       C    0.5039777745    0.4733198899   -0.1985462692          0.6302
C671       C    0.4934309832    0.5045241655   -0.2164982352         -0.3605
C672       C    0.4855298355    0.5331959535   -0.1929863038          -0.354
C673       C    0.4888581584    0.5307207479   -0.1561186426         -0.3574
C674       C    0.4882594934    0.5046895743   -0.2542662246         -0.3555
H675       H    0.5100954452    0.4489579690   -0.2142454747          0.6251
H676       H    0.5158410735    0.4457663942   -0.1515064098          0.6193
C677       C    0.4816123633    0.5551876320   -0.1397496330         -0.3514
C678       C    0.5008568529    0.5878305170   -0.2240252641          0.6336
N679       N    0.4821736215    0.5803737350   -0.1215723844         -0.3521
C680       C    0.5079749386    0.4928887274   -0.2835110581          0.6281
C681       C    0.4986756855    0.4976642775   -0.3222434357         -0.3633
H682       H    0.5336838604    0.4788674412   -0.2788455409          0.6061
H683       H    0.4630128006    0.5179638734   -0.2621490536         -0.3338
C684       C    0.5000000000    0.5000000000   -0.3606414087         -0.3639
H685       H    0.4877748900    0.6118010751   -0.2357503663          -0.355
H686       H    0.5182212091    0.5960746356   -0.2013203372          0.6185
H687       H    0.5171489535    0.5742192197   -0.2448456452            0.62
O688       O    0.4728850965    0.5634424104   -0.2110196804         -0.3429
C647       C    0.5000000000    0.5000000000    0.3606414087          0.6327
C648       C    0.4719209607    0.4929536783    0.3378543712           0.627
C649       C    0.4733198899    0.4960222255    0.3014537308          0.6302
C650       C    0.5045241655    0.5065690168    0.2835017648         -0.3605
C651       C    0.5331959535    0.5144701645    0.3070136962          -0.354
C652       C    0.5307207479    0.5111418416    0.3438813574         -0.3574
C653       C    0.5046895743    0.5117405066    0.2457337754         -0.3555
H654       H    0.4489579690    0.4899045548    0.2857545253          0.6251
H655       H    0.4457663942    0.4841589265    0.3484935902          0.6193
C656       C    0.5551876320    0.5183876367    0.3602503670         -0.3514
C657       C    0.5878305170    0.4991431471    0.2759747359          0.6336
N658       N    0.5803737350    0.5178263785    0.3784276156         -0.3521
C659       C    0.4928887274    0.4920250614    0.2164889419          0.6281
C660       C    0.4976642775    0.5013243145    0.1777565643         -0.3633
H661       H    0.4788674412    0.4663161396    0.2211544591          0.6061
H662       H    0.5179638734    0.5369871994    0.2378509464         -0.3338
C663       C    0.5000000000    0.5000000000    0.1393585913         -0.3639
H664       H    0.6118010751    0.5122251100    0.2642496337          -0.355
H665       H    0.5960746356    0.4817787909    0.2986796628          0.6185
H666       H    0.5742192197    0.4828510465    0.2551543548            0.62
O667       O    0.5634424104    0.5271149035    0.2889803196         -0.3429
C626       C    0.5000000000    0.8606414087    0.5000000000          0.6327
C627       C    0.5091948422    0.8378543712    0.5274506462           0.627
C628       C    0.5060273774    0.8014537308    0.5262929969          0.6302
C629       C    0.4931010525    0.7835017648    0.4959969287         -0.3605
C630       C    0.4830081400    0.8070136962    0.4680213559          -0.354
C631       C    0.4865177646    0.8438813574    0.4702319917         -0.3574
C632       C    0.4879322427    0.7457337754    0.4962316004         -0.3555
H633       H    0.5140091339    0.7857545253    0.5501093914          0.6251
H634       H    0.5199841889    0.8484935902    0.5528474768          0.6193
C635       C    0.4774031461    0.8602503670    0.4463981147         -0.3514
C636       C    0.4940678820    0.7759747359    0.4123658521          0.6336
N637       N    0.4760166693    0.8784276156    0.4212439406         -0.3521
C638       C    0.5085005644    0.7164889419    0.5064738125          0.6281
C639       C    0.4988601191    0.6777565643    0.5024310657         -0.3633
H640       H    0.5352160116    0.7211544591    0.5184667273          0.6061
H641       H    0.4617353601    0.7378509464    0.4849477245         -0.3338
C642       C    0.5000000000    0.6393585913    0.5000000000         -0.3639
H643       H    0.4791728930    0.7642496337    0.3894777609          -0.355
H644       H    0.5107433271    0.7986796628    0.4028046864          0.6185
H645       H    0.5113629817    0.7551543548    0.4246776141            0.62
O646       O    0.4680641474    0.7889803196    0.4388423451         -0.3429
C605       C    0.5000000000    1.1393585913    0.5000000000          0.6327
C606       C    0.4719209607    1.1621456288    0.4929536783           0.627
C607       C    0.4733198899    1.1985462692    0.4960222255          0.6302
C608       C    0.5045241655    1.2164982352    0.5065690168         -0.3605
C609       C    0.5331959535    1.1929863038    0.5144701645          -0.354
C610       C    0.5307207479    1.1561186426    0.5111418416         -0.3574
C611       C    0.5046895743    1.2542662246    0.5117405066         -0.3555
H612       H    0.4489579690    1.2142454747    0.4899045548          0.6251
H613       H    0.4457663942    1.1515064098    0.4841589265          0.6193
C614       C    0.5551876320    1.1397496330    0.5183876367         -0.3514
C615       C    0.5878305170    1.2240252641    0.4991431471          0.6336
N616       N    0.5803737350    1.1215723844    0.5178263785         -0.3521
C617       C    0.4928887274    1.2835110581    0.4920250614          0.6281
C618       C    0.4976642775    1.3222434357    0.5013243145         -0.3633
H619       H    0.4788674412    1.2788455409    0.4663161396          0.6061
H620       H    0.5179638734    1.2621490536    0.5369871994         -0.3338
C621       C    0.5000000000    1.3606414087    0.5000000000         -0.3639
H622       H    0.6118010751    1.2357503663    0.5122251100          -0.355
H623       H    0.5960746356    1.2013203372    0.4817787909          0.6185
H624       H    0.5742192197    1.2448456452    0.4828510465            0.62
O625       O    0.5634424104    1.2110196804    0.5271149035         -0.3429
C584       C    0.5000000000    0.6393585913    0.0000000000          0.6327
C585       C    0.5086505412    0.6621456288    0.0276270019           0.627
C586       C    0.5105372585    0.6985462692    0.0248317770          0.6302
C587       C    0.5032404990    0.7164982352   -0.0072882935         -0.3605
C588       C    0.4950095455    0.6929863038   -0.0358671486          -0.354
C589       C    0.4934632000    0.6561186426   -0.0320183577         -0.3574
C590       C    0.5075648038    0.7542662246   -0.0101294297         -0.3555
H591       H    0.5180391013    0.7142454747    0.0488036655          0.6251
H592       H    0.5148051022    0.6515064098    0.0545255220          0.6193
C593       C    0.4868687112    0.6397496330   -0.0566687671         -0.3514
C594       C    0.4534124277    0.7240252641   -0.0744616143          0.6336
N595       N    0.4732402268    0.6215723844   -0.0778564807         -0.3521
C596       C    0.4969111593    0.7835110581    0.0102288272          0.6281
C597       C    0.5023489759    0.8222434357    0.0013006618         -0.3633
H598       H    0.4823050955    0.7788455409    0.0356100806          0.6061
H599       H    0.5221666472    0.7621490536   -0.0346322599         -0.3338
C600       C    0.5000000000    0.8606414087    0.0000000000         -0.3639
H601       H    0.4520546301    0.7357503663   -0.1017358109          -0.355
H602       H    0.4342983996    0.7013203372   -0.0724268442          0.6185
H603       H    0.4466237346    0.7448456452   -0.0543466050            0.62
O604       O    0.4900021679    0.7110196804   -0.0682656633         -0.3429
C563       C    0.5000000000    1.1393585913    0.0000000000          0.6327
C564       C    0.4713952491    1.1621456288   -0.0044554826           0.627
C565       C    0.4730682681    1.1985462692   -0.0015273446          0.6302
C566       C    0.5051045485    1.2164982352    0.0061289184         -0.3605
C567       C    0.5343775565    1.1929863038    0.0113815903          -0.354
C568       C    0.5316090512    1.1561186426    0.0082929411         -0.3574
C569       C    0.5057410273    1.2542662246    0.0112637564         -0.3555
H570       H    0.4482498515    1.2142454747   -0.0053971356          0.6251
H571       H    0.4445474496    1.1515064098   -0.0108276617          0.6193
C572       C    0.5566349044    1.1397496330    0.0132765777         -0.3514
C573       C    0.5873861404    1.2240252641   -0.0088654593          0.6336
N574       N    0.5816647935    1.1215723844    0.0104201033         -0.3521
C575       C    0.4921908788    1.2835110581   -0.0072929740          0.6281
C576       C    0.4977948245    1.3222434357    0.0015318648         -0.3633
H577       H    0.4758828051    1.2788455409   -0.0316156354          0.6061
H578       H    0.5212630625    1.2621490536    0.0351942586         -0.3338
C579       C    0.5000000000    1.3606414087    0.0000000000         -0.3639
H580       H    0.6124501310    1.2357503663    0.0019752875          -0.355
H581       H    0.5940118531    1.2013203372   -0.0269094691          0.6185
H582       H    0.5723453786    1.2448456452   -0.0238479637            0.62
O583       O    0.5656513933    1.2110196804    0.0212144288         -0.3429
C542       C    0.5000000000    1.0000000000   -0.1393585913          0.6327
C543       C    0.4929536783    1.0280790393   -0.1621456288           0.627
C544       C    0.4960222255    1.0266801101   -0.1985462692          0.6302
C545       C    0.5065690168    0.9954758345   -0.2164982352         -0.3605
C546       C    0.5144701645    0.9668040465   -0.1929863038          -0.354
C547       C    0.5111418416    0.9692792521   -0.1561186426         -0.3574
C548       C    0.5117405066    0.9953104257   -0.2542662246         -0.3555
H549       H    0.4899045548    1.0510420310   -0.2142454747          0.6251
H550       H    0.4841589265    1.0542336058   -0.1515064098          0.6193
C551       C    0.5183876367    0.9448123680   -0.1397496330         -0.3514
C552       C    0.4991431471    0.9121694830   -0.2240252641          0.6336
N553       N    0.5178263785    0.9196262650   -0.1215723844         -0.3521
C554       C    0.4920250614    1.0071112726   -0.2835110581          0.6281
C555       C    0.5013243145    1.0023357225   -0.3222434357         -0.3633
H556       H    0.4663161396    1.0211325588   -0.2788455409          0.6061
H557       H    0.5369871994    0.9820361266   -0.2621490536         -0.3338
C558       C    0.5000000000    1.0000000000   -0.3606414087         -0.3639
H559       H    0.5122251100    0.8881989249   -0.2357503663          -0.355
H560       H    0.4817787909    0.9039253644   -0.2013203372          0.6185
H561       H    0.4828510465    0.9257807803   -0.2448456452            0.62
O562       O    0.5271149035    0.9365575896   -0.2110196804         -0.3429
C521       C    0.5000000000    1.0000000000    0.3606414087          0.6327
C522       C    0.4719209607    0.9929536783    0.3378543712           0.627
C523       C    0.4733198899    0.9960222255    0.3014537308          0.6302
C524       C    0.5045241655    1.0065690168    0.2835017648         -0.3605
C525       C    0.5331959535    1.0144701645    0.3070136962          -0.354
C526       C    0.5307207479    1.0111418416    0.3438813574         -0.3574
C527       C    0.5046895743    1.0117405066    0.2457337754         -0.3555
H528       H    0.4489579690    0.9899045548    0.2857545253          0.6251
H529       H    0.4457663942    0.9841589265    0.3484935902          0.6193
C530       C    0.5551876320    1.0183876367    0.3602503670         -0.3514
C531       C    0.5878305170    0.9991431471    0.2759747359          0.6336
N532       N    0.5803737350    1.0178263785    0.3784276156         -0.3521
C533       C    0.4928887274    0.9920250614    0.2164889419          0.6281
C534       C    0.4976642775    1.0013243145    0.1777565643         -0.3633
H535       H    0.4788674412    0.9663161396    0.2211544591          0.6061
H536       H    0.5179638734    1.0369871994    0.2378509464         -0.3338
C537       C    0.5000000000    1.0000000000    0.1393585913         -0.3639
H538       H    0.6118010751    1.0122251100    0.2642496337          -0.355
H539       H    0.5960746356    0.9817787909    0.2986796628          0.6185
H540       H    0.5742192197    0.9828510465    0.2551543548            0.62
O541       O    0.5634424104    1.0271149035    0.2889803196         -0.3429
C500       C    0.8606414087    0.5000000000    0.5000000000          0.6327
C501       C    0.8378543712    0.4748935553    0.5144135190           0.627
C502       C    0.8014537308    0.4780303132    0.5156519593          0.6302
C503       C    0.7835017648    0.5078161737    0.5015898065         -0.3605
C504       C    0.8070136962    0.5339426305    0.4873803796          -0.354
C505       C    0.8438813574    0.5298506927    0.4867018372         -0.3574
C506       C    0.7457337754    0.5115242550    0.5051983795         -0.3555
H507       H    0.7857545253    0.4562445967    0.5281544246          0.6251
H508       H    0.8484935902    0.4499592888    0.5262326291          0.6193
C509       C    0.8602503670    0.5524948937    0.4749387541         -0.3514
C510       C    0.7759747359    0.5626415098    0.4384291047          0.6336
N511       N    0.8784276156    0.5702388581    0.4570556189         -0.3521
C512       C    0.7164889419    0.4893454593    0.4991933994          0.6281
C513       C    0.6777565643    0.4992373962    0.5025744600         -0.3633
H514       H    0.7211544591    0.4614085475    0.4904142144          0.6061
H515       H    0.7378509464    0.5386025666    0.5141631748         -0.3338
C516       C    0.6393585913    0.5000000000    0.5000000000         -0.3639
H517       H    0.7642496337    0.5889786404    0.4312123901          -0.355
H518       H    0.7986796628    0.5565263212    0.4202057454          0.6185
H519       H    0.7551543548    0.5415350127    0.4361453064            0.62
O520       O    0.7889803196    0.5644948474    0.4754934276         -0.3429
C479       C    1.1393585913    0.5000000000    0.5000000000          0.6327
C480       C    1.1621456288    0.5144135190    0.4748935553           0.627
C481       C    1.1985462692    0.5156519593    0.4780303132          0.6302
C482       C    1.2164982352    0.5015898065    0.5078161737         -0.3605
C483       C    1.1929863038    0.4873803796    0.5339426305          -0.354
C484       C    1.1561186426    0.4867018372    0.5298506927         -0.3574
C485       C    1.2542662246    0.5051983795    0.5115242550         -0.3555
H486       H    1.2142454747    0.5281544246    0.4562445967          0.6251
H487       H    1.1515064098    0.5262326291    0.4499592888          0.6193
C488       C    1.1397496330    0.4749387541    0.5524948937         -0.3514
C489       C    1.2240252641    0.4384291047    0.5626415098          0.6336
N490       N    1.1215723844    0.4570556189    0.5702388581         -0.3521
C491       C    1.2835110581    0.4991933994    0.4893454593          0.6281
C492       C    1.3222434357    0.5025744600    0.4992373962         -0.3633
H493       H    1.2788455409    0.4904142144    0.4614085475          0.6061
H494       H    1.2621490536    0.5141631748    0.5386025666         -0.3338
C495       C    1.3606414087    0.5000000000    0.5000000000         -0.3639
H496       H    1.2357503663    0.4312123901    0.5889786404          -0.355
H497       H    1.2013203372    0.4202057454    0.5565263212          0.6185
H498       H    1.2448456452    0.4361453064    0.5415350127            0.62
O499       O    1.2110196804    0.4754934276    0.5644948474         -0.3429
C458       C    0.8606414087    0.5000000000    0.0000000000          0.6327
C459       C    0.8378543712    0.5278245956   -0.0079921822           0.627
C460       C    0.8014537308    0.5250749531   -0.0099447319          0.6302
C461       C    0.7835017648    0.4927906969   -0.0034126244         -0.3605
C462       C    0.8070136962    0.4640244782    0.0041374895          -0.354
C463       C    0.8438813574    0.4678354708    0.0057747772         -0.3574
C464       C    0.7457337754    0.4900530292   -0.0078031644         -0.3555
H465       H    0.7857545253    0.5492181932   -0.0168753192          0.6251
H466       H    0.8484935902    0.5548616552   -0.0135063832          0.6193
C467       C    0.8602503670    0.4430354435    0.0117821567         -0.3514
C468       C    0.7759747359    0.4244532923    0.0448065716          0.6336
N469       N    0.8784276156    0.4215301347    0.0249037606         -0.3521
C470       C    0.7164889419    0.5101526086    0.0033308230          0.6281
C471       C    0.6777565643    0.5013560646   -0.0023174334         -0.3633
H472       H    0.7211544591    0.5351799302    0.0185353716          0.6061
H473       H    0.7378509464    0.4659037832   -0.0229826383         -0.3338
C474       C    0.6393585913    0.5000000000    0.0000000000         -0.3639
H475       H    0.7642496337    0.3971545469    0.0455164421          -0.355
H476       H    0.7986796628    0.4260336833    0.0639635213          0.6185
H477       H    0.7551543548    0.4444014544    0.0520709218            0.62
O478       O    0.7889803196    0.4315162109    0.0083742497         -0.3429
C437       C    1.1393585913    0.5000000000    0.0000000000          0.6327
C438       C    1.1621456288    0.5139282872   -0.0253788478           0.627
C439       C    1.1985462692    0.5152267900   -0.0222664732          0.6302
C440       C    1.2164982352    0.5017397468    0.0077841722         -0.3605
C441       C    1.1929863038    0.4880351197    0.0341789208          -0.354
C442       C    1.1561186426    0.4872780518    0.0301007811         -0.3558
C443       C    1.2542662246    0.5054189260    0.0114222083         -0.3555
H444       H    1.2142454747    0.5273082041   -0.0442884740          0.6251
H445       H    1.1515064098    0.5252659542   -0.0505356821          0.6193
C446       C    1.1397496330    0.4759523843    0.0529668962         -0.3514
C447       C    1.2240252641    0.4396445069    0.0638133870          0.6336
N448       N    1.1215723844    0.4584136082    0.0710513129         -0.3521
C449       C    1.2835110581    0.4989887582   -0.0106370688          0.6281
C450       C    1.3222434357    0.5025593264   -0.0008119465         -0.3633
H451       H    1.2788455409    0.4896742219   -0.0384000755          0.6061
H452       H    1.2621490536    0.5149025354    0.0383232059         -0.3338
C453       C    1.3606414087    0.5000000000    0.0000000000         -0.3639
H454       H    1.2357503663    0.4329353496    0.0902843640          -0.355
H455       H    1.2013203372    0.4213069746    0.0580495979          0.6185
H456       H    1.2448456452    0.4369554442    0.0427546858            0.62
O457       O    1.2110196804    0.4767376056    0.0649539717         -0.3429
C416       C    1.0000000000    0.5000000000   -0.3606414087          0.6327
C417       C    1.0280790393    0.4929536783   -0.3378543712           0.627
C418       C    1.0266801101    0.4960222255   -0.3014537308          0.6302
C419       C    0.9954758345    0.5065690168   -0.2835017648         -0.3605
C420       C    0.9668040465    0.5144701645   -0.3070136962          -0.354
C421       C    0.9692792521    0.5111418416   -0.3438813574         -0.3574
C422       C    0.9953104257    0.5117405066   -0.2457337754         -0.3555
H423       H    1.0510420310    0.4899045548   -0.2857545253          0.6251
H424       H    1.0542336058    0.4841589265   -0.3484935902          0.6193
C425       C    0.9448123680    0.5183876367   -0.3602503670         -0.3514
C426       C    0.9121694830    0.4991431471   -0.2759747359          0.6336
N427       N    0.9196262650    0.5178263785   -0.3784276156         -0.3521
C428       C    1.0071112726    0.4920250614   -0.2164889419          0.6281
C429       C    1.0023357225    0.5013243145   -0.1777565643         -0.3633
H430       H    1.0211325588    0.4663161396   -0.2211544591          0.6061
H431       H    0.9820361266    0.5369871994   -0.2378509464         -0.3338
C432       C    1.0000000000    0.5000000000   -0.1393585913         -0.3639
H433       H    0.8881989249    0.5122251100   -0.2642496337          -0.355
H434       H    0.9039253644    0.4817787909   -0.2986796628          0.6185
H435       H    0.9257807803    0.4828510465   -0.2551543548            0.62
O436       O    0.9365575896    0.5271149035   -0.2889803196         -0.3429
C395       C    1.0000000000    0.5000000000    0.1393585913          0.6327
C396       C    0.9719487786    0.5071562612    0.1621456288           0.627
C397       C    0.9733356767    0.5040822576    0.1985462692          0.6302
C398       C    1.0044983981    0.4934133111    0.2164982352         -0.3605
C399       C    1.0331390150    0.4853999086    0.1929863038          -0.354
C400       C    1.0306768664    0.4887379020    0.1561186426         -0.3574
C401       C    1.0046435474    0.4882412131    0.2542662246         -0.3555
H402       H    0.9489979074    0.5102953139    0.2142454747          0.6251
H403       H    0.9458288643    0.5160534003    0.1515064098          0.6193
C404       C    1.0551151790    0.4813963187    0.1397496330         -0.3514
C405       C    1.0878331996    0.5005127893    0.2240252641          0.6336
N406       N    1.0803032874    0.4818589116    0.1215723844         -0.3521
C407       C    0.9929200221    0.5080027343    0.2835110581          0.6281
C408       C    0.9976591077    0.4986848453    0.3222434357         -0.3633
H409       H    0.9789995526    0.5337663841    0.2788455409          0.6061
H410       H    1.0178188463    0.4629427148    0.2621490536         -0.3338
C411       C    1.0000000000    0.5000000000    0.3606414087         -0.3639
H412       H    1.1117523281    0.4873370273    0.2357503663          -0.355
H413       H    1.0961452761    0.5178447177    0.2013203372          0.6185
H414       H    1.0742858275    0.5168580842    0.2448456452            0.62
O415       O    1.0633357069    0.4726367826    0.2110196804         -0.3429
C374       C    1.0000000000   -0.1393585913    0.5000000000          0.6327
C375       C    1.0280790393   -0.1621456288    0.4929536783           0.627
C376       C    1.0266801101   -0.1985462692    0.4960222255          0.6302
C377       C    0.9954758345   -0.2164982352    0.5065690168         -0.3605
C378       C    0.9668040465   -0.1929863038    0.5144701645          -0.354
C379       C    0.9692792521   -0.1561186426    0.5111418416         -0.3574
C380       C    0.9953104257   -0.2542662246    0.5117405066         -0.3555
H381       H    1.0510420310   -0.2142454747    0.4899045548          0.6251
H382       H    1.0542336058   -0.1515064098    0.4841589265          0.6193
C383       C    0.9448123680   -0.1397496330    0.5183876367         -0.3514
C384       C    0.9121694830   -0.2240252641    0.4991431471          0.6336
N385       N    0.9196262650   -0.1215723844    0.5178263785         -0.3521
C386       C    1.0071112726   -0.2835110581    0.4920250614          0.6281
C387       C    1.0023357225   -0.3222434357    0.5013243145         -0.3633
H388       H    1.0211325588   -0.2788455409    0.4663161396          0.6061
H389       H    0.9820361266   -0.2621490536    0.5369871994         -0.3338
C390       C    1.0000000000   -0.3606414087    0.5000000000         -0.3639
H391       H    0.8881989249   -0.2357503663    0.5122251100          -0.355
H392       H    0.9039253644   -0.2013203372    0.4817787909          0.6185
H393       H    0.9257807803   -0.2448456452    0.4828510465            0.62
O394       O    0.9365575896   -0.2110196804    0.5271149035         -0.3429
C353       C    1.0000000000    0.1393585913    0.5000000000          0.6327
C354       C    1.0276996919    0.1621456288    0.5084148778           0.627
C355       C    1.0264529317    0.1985462692    0.5052814175          0.6302
C356       C    0.9958034318    0.2164982352    0.4932170160         -0.3605
C357       C    0.9675536264    0.1929863038    0.4839192717          -0.354
C358       C    0.9698626281    0.1561186426    0.4873649772         -0.3574
C359       C    0.9958918390    0.2542662246    0.4880436370         -0.3555
H360       H    1.0504855201    0.2142454747    0.5125864691          0.6251
H361       H    1.0533914811    0.1515064098    0.5184817031          0.6193
C362       C    0.9457805276    0.1397496330    0.4789280110         -0.3514
C363       C    0.9122331440    0.2240252641    0.4965484929          0.6336
N364       N    0.9205972049    0.1215723844    0.4782534329         -0.3521
C365       C    1.0067116140    0.2835110581    0.5083140893          0.6281
C366       C    1.0023978583    0.3222434357    0.4987918260         -0.3633
H367       H    1.0194552283    0.2788455409    0.5346796999          0.6061
H368       H    0.9838716446    0.2621490536    0.4621763325         -0.3338
C369       C    1.0000000000    0.3606414087    0.5000000000         -0.3639
H370       H    0.8889329859    0.2357503663    0.4823067218          -0.355
H371       H    0.9031473734    0.2013203372    0.5134876525          0.6185
H372       H    0.9250290766    0.2448456452    0.5134885067            0.62
O373       O    0.9379636788    0.2110196804    0.4698064197         -0.3429
C332       C    0.6393585913    0.0000000000    0.5000000000          0.6327
C333       C    0.6621456288   -0.0098750438    0.5272133535           0.627
C334       C    0.6985462692   -0.0116351166    0.5243367012          0.6302
C335       C    0.7164982352   -0.0029119584    0.4925743314         -0.3605
C336       C    0.6929863038    0.0065864017    0.4643913452          -0.354
C337       C    0.6561186426    0.0079594162    0.4683053209         -0.3574
C338       C    0.7542662246   -0.0071051400    0.4895430125         -0.3555
H339       H    0.7142454747   -0.0201994618    0.5479498559          0.6251
H340       H    0.6515064098   -0.0172240793    0.5538103586          0.6193
C341       C    0.6397496330    0.0156475973    0.4439738221         -0.3514
C342       C    0.7240252641    0.0498647165    0.4276920201          0.6336
N343       N    0.6215723844    0.0302082072    0.4234155286         -0.3521
C344       C    0.7835110581    0.0026292013    0.5103565025          0.6281
C345       C    0.8222434357   -0.0024046895    0.5011945196         -0.3633
H346       H    0.7788455409    0.0160878227    0.5363643981          0.6061
H347       H    0.7621490536   -0.0205987535    0.4644128531         -0.3338
C348       C    0.8606414087    0.0000000000    0.5000000000         -0.3639
H349       H    0.7357503663    0.0524385374    0.4005056106          -0.355
H350       H    0.7013203372    0.0688688735    0.4305779119          0.6185
H351       H    0.7448456452    0.0557488155    0.4480899938            0.62
O352       O    0.7110196804    0.0130348879    0.4322486227         -0.3429
C311       C    1.1393585913   -0.0000000000    0.5000000000          0.6327
C312       C    1.1621456288    0.0139917186    0.4746560676           0.627
C313       C    1.1985462692    0.0152824330    0.4777716801          0.6302
C314       C    1.2164982352    0.0017202724    0.5077884991         -0.3605
C315       C    1.1929863038   -0.0120503276    0.5341488886          -0.354
C316       C    1.1561186426   -0.0127971934    0.5300688681         -0.3574
C317       C    1.2542662246    0.0053903411    0.5114357259         -0.3555
H318       H    1.2142454747    0.0274188884    0.4557799649          0.6251
H319       H    1.1515064098    0.0253922697    0.4495276686          0.6193
C320       C    1.1397496330   -0.0241800158    0.5529065851         -0.3514
C321       C    1.2240252641   -0.0605149077    0.5636622326          0.6336
N322       N    1.1215723844   -0.0417639678    0.5709470792         -0.3521
C323       C    1.2835110581   -0.0009846343    0.4893604352          0.6281
C324       C    1.3222434357    0.0025613492    0.4991944572         -0.3633
H325       H    1.2788455409   -0.0102297036    0.4615742189          0.6061
H326       H    1.2621490536    0.0148066387    0.5383603587         -0.3338
C327       C    1.3606414087   -0.0000000000    0.5000000000         -0.3639
H328       H    1.2357503663   -0.0672902505    0.5901163465          -0.355
H329       H    1.2013203372   -0.0788379668    0.5578525975          0.6185
H330       H    1.2448456452   -0.0631512922    0.5425968716            0.62
O331       O    1.2110196804   -0.0234247778    0.5648955871         -0.3429
C290       C    0.0000000000   -0.3606414087    0.0000000000          0.6327
C291       C    0.0145974432   -0.3378543712   -0.0249999550           0.627
C292       C    0.0112605044   -0.3014537308   -0.0245122827          0.6302
C293       C   -0.0075700962   -0.2835017648    0.0025127077         -0.3605
C294       C   -0.0231537566   -0.3070136962    0.0278435009          -0.354
C295       C   -0.0192671967   -0.3438813574    0.0263946986         -0.3574
C296       C   -0.0125825415   -0.2457337754    0.0012293299         -0.3555
H297       H    0.0239295106   -0.2857545253   -0.0462015742          0.6251
H298       H    0.0303372527   -0.3484935902   -0.0476641868          0.6193
C299       C   -0.0330488423   -0.3602503670    0.0478701779         -0.3514
C300       C   -0.0236712998   -0.2759747359    0.0845848891          0.6336
N301       N   -0.0395337471   -0.3784276156    0.0722135714         -0.3521
C302       C    0.0096417313   -0.2164889419   -0.0046050906          0.6281
C303       C   -0.0006203878   -0.1777565643   -0.0026123797         -0.3633
H304       H    0.0382409313   -0.2211544591   -0.0109003973          0.6061
H305       H   -0.0405295314   -0.2378509464    0.0069361917         -0.3338
C306       C   -0.0000000000   -0.1393585913    0.0000000000         -0.3639
H307       H   -0.0429191539   -0.2642496337    0.1039561444          -0.355
H308       H   -0.0092949751   -0.2986796628    0.0973444991          0.6185
H309       H   -0.0042296558   -0.2551543548    0.0760571442            0.62
O310       O   -0.0437319546   -0.2889803196    0.0533635979         -0.3429
C269       C    0.0000000000    0.3606414087    0.0000000000          0.6327
C270       C    0.0259428364    0.3378543712   -0.0128472698           0.627
C271       C    0.0252272988    0.3014537308   -0.0095516680          0.6302
C272       C   -0.0030263212    0.2835017648    0.0073797992         -0.3605
C273       C   -0.0293669002    0.3070136962    0.0211882552          -0.354
C274       C   -0.0276547781    0.3438813574    0.0174102910         -0.3574
C275       C   -0.0020899753    0.2457337754    0.0124685046         -0.3555
H276       H    0.0477349284    0.2857545253   -0.0207022596          0.6251
H277       H    0.0496338578    0.3484935902   -0.0269945136          0.6193
C278       C   -0.0500254605    0.3602503670    0.0296855725         -0.3514
C279       C   -0.0860100205    0.2759747359    0.0178103983          0.6336
N280       N   -0.0747565172    0.3784276156    0.0344844919         -0.3521
C281       C    0.0052559477    0.2164889419   -0.0093029488          0.6281
C282       C    0.0025636427    0.1777565643    0.0007982135         -0.3633
H283       H    0.0134991834    0.2211544591   -0.0374026675          0.6061
H284       H   -0.0097013922    0.2378509464    0.0399579361         -0.3338
C285       C    0.0000000000    0.1393585913    0.0000000000         -0.3639
H286       H   -0.1066565878    0.2642496337    0.0356834134          -0.355
H287       H   -0.0977528934    0.2986796628    0.0025922745          0.6185
H288       H   -0.0761680963    0.2551543548   -0.0010001435            0.62
O289       O   -0.0562391133    0.2889803196    0.0399664806         -0.3429
C248       C   -0.3606414087   -0.0000000000    0.0000000000          0.6327
C249       C   -0.3378543712   -0.0101743889    0.0271028580           0.627
C250       C   -0.3014537308   -0.0119026484    0.0242069809          0.6302
C251       C   -0.2835017648   -0.0028299360   -0.0074573131         -0.3605
C252       C   -0.3070136962    0.0069784793   -0.0355338967          -0.354
C253       C   -0.3438813574    0.0083082707   -0.0316050253         -0.3574
C254       C   -0.2457337754   -0.0069894518   -0.0105346650         -0.3555
H255       H   -0.2857545253   -0.0207267370    0.0477243053          0.6251
H256       H   -0.3484935902   -0.0178161295    0.0536172466          0.6193
C257       C   -0.3602503670    0.0162641659   -0.0558503072         -0.3514
C258       C   -0.2759747359    0.0506586643   -0.0717539800          0.6336
N259       N   -0.3784276156    0.0310504844   -0.0762468653         -0.3521
C260       C   -0.2164889419    0.0025148925    0.0103848524          0.6281
C261       C   -0.1777565643   -0.0024177094    0.0011679426         -0.3633
H262       H   -0.2211544591    0.0156860380    0.0365395088          0.6061
H263       H   -0.2378509464   -0.0202052616   -0.0358120241         -0.3338
C264       C   -0.1393585913   -0.0000000000    0.0000000000         -0.3639
H265       H   -0.2642496337    0.0535319767   -0.0989103694          -0.355
H266       H   -0.2986796628    0.0696298587   -0.0686588001          0.6185
H267       H   -0.2551543548    0.0563175800   -0.0512923909            0.62
O268       O   -0.2889803196    0.0137808501   -0.0676035916         -0.3429
C227       C    0.3606414087   -0.0000000000    0.0000000000          0.6327
C228       C    0.3378543712    0.0289465123    0.0004272296           0.627
C229       C    0.3014537308    0.0268818995   -0.0022392960          0.6302
C230       C    0.2835017648   -0.0059085703   -0.0053580643         -0.3605
C231       C    0.3070136962   -0.0356278769   -0.0064816180          -0.354
C232       C    0.3438813574   -0.0324560993   -0.0038087540         -0.3574
C233       C    0.2457337754   -0.0072541561   -0.0103541693         -0.3555
H234       H    0.2857545253    0.0519974062   -0.0018645885          0.6251
H235       H    0.3484935902    0.0564202116    0.0029972204          0.6193
C236       C    0.3602503670   -0.0579321853   -0.0052575492         -0.3514
C237       C    0.2759747359   -0.0852990629    0.0209524171          0.6336
N238       N    0.3784276156   -0.0823200943    0.0010578832         -0.3521
C239       C    0.2164889419    0.0087489316    0.0061340068          0.6281
C240       C    0.1777565643    0.0019702760   -0.0018241221         -0.3633
H241       H    0.2211544591    0.0282862810    0.0279476975          0.6061
H242       H    0.2378509464   -0.0259585014   -0.0318890244         -0.3338
C243       C    0.1393585913   -0.0000000000    0.0000000000         -0.3639
H244       H    0.2642496337   -0.1116288441    0.0137089348          -0.355
H245       H    0.2986796628   -0.0893465347    0.0397434876          0.6185
H246       H    0.2551543548   -0.0683178068    0.0336935669            0.62
O247       O    0.2889803196   -0.0679665472   -0.0118619517         -0.3429
C206       C    0.0000000000    0.0000000000   -0.1393585913          0.6327
C207       C   -0.0280951787   -0.0069816928   -0.1621456288           0.627
C208       C   -0.0266891924   -0.0039163727   -0.1985462692          0.6302
C209       C    0.0045392689    0.0065585893   -0.2164982352         -0.3605
C210       C    0.0332291616    0.0143937418   -0.1929863038          -0.354
C211       C    0.0307463041    0.0110711233   -0.1561186426         -0.3574
C212       C    0.0047165770    0.0117296847   -0.2542662246         -0.3555
H213       H   -0.0510651256   -0.0099779701   -0.2142454747          0.6251
H214       H   -0.0542699127   -0.0157162392   -0.1515064098          0.6193
C215       C    0.0552297961    0.0182606006   -0.1397496330         -0.3514
C216       C    0.0878283128   -0.0010589499   -0.2240252641          0.6336
N217       N    0.0804145410    0.0176413902   -0.1215723844         -0.3521
C218       C   -0.0071296042   -0.0079585543   -0.2835110581          0.6281
C219       C   -0.0023326691    0.0013296856   -0.3222434357         -0.3633
H220       H   -0.0212100099   -0.0336351449   -0.2788455409          0.6061
H221       H    0.0180489339    0.0369457664   -0.2621490536         -0.3338
C222       C   -0.0000000000    0.0000000000   -0.3606414087         -0.3639
H223       H    0.1118289093    0.0119678218   -0.2357503663          -0.355
H224       H    0.0960324540   -0.0184422300   -0.2013203372          0.6185
H225       H    0.0741795632   -0.0173196876   -0.2448456452            0.62
O226       O    0.0635046343    0.0269688498   -0.2110196804         -0.3429
C185       C   -0.0000000000    0.0000000000    0.3606414087          0.6327
C186       C   -0.0141775541    0.0252404449    0.3378543712           0.627
C187       C   -0.0108492324    0.0246970671    0.3014537308          0.6302
C188       C    0.0075270412   -0.0026388835    0.2835017648         -0.3605
C189       C    0.0226851451   -0.0282266041    0.3070136962          -0.354
C190       C    0.0188233435   -0.0267130441    0.3438813574         -0.3574
C191       C    0.0125602368   -0.0014394632    0.2457337754         -0.3555
H192       H   -0.0231539534    0.0465950790    0.2857545253          0.6251
H193       H   -0.0295363541    0.0481645865    0.3484935902          0.6193
C194       C    0.0322441220   -0.0484158704    0.3602503670         -0.3514
C195       C    0.0222542387   -0.0849687164    0.2759747359          0.6336
N196       N    0.0383212447   -0.0728642522    0.3784276156         -0.3521
C197       C   -0.0095634149    0.0047655996    0.2164889419          0.6281
C198       C    0.0006639646    0.0026016456    0.1777565643         -0.3633
H199       H   -0.0380533999    0.0115380348    0.2211544591          0.6061
H200       H    0.0404079381   -0.0076126347    0.2378509464         -0.3338
C201       C   -0.0000000000    0.0000000000    0.1393585913         -0.3639
H202       H    0.0411756322   -0.1046589749    0.2642496337          -0.355
H203       H    0.0076666577   -0.0974862576    0.2986796628          0.6185
H204       H    0.0029578435   -0.0761172145    0.2551543548            0.62
O205       O    0.0428339249   -0.0540870808    0.2889803196         -0.3429
loop_
_geom_bond_atom_site_label_1
_geom_bond_atom_site_label_2
_geom_bond_distance
_geom_bond_site_symmetry_2
_ccdc_geom_bond_type
Zn1          O5 1.942       .   S
Zn1          O6 1.922       .   S
Zn1         O10 1.922       .   S
Zn1         O17 1.922       .   S
Zn2          O5 1.942       .   S
Zn2          O7 1.922       .   S
Zn2          O9 1.922       .   S
Zn2         O13 1.922       .   S
Zn3          O5 1.942       .   S
Zn3          O8 1.922       .   S
Zn3         O11 1.922       .   S
Zn3         O14 1.922       .   S
Zn4          O5 1.942       .   S
Zn4         O12 1.922       .   S
Zn4         O15 1.922       .   S
Zn4         O16 1.922       .   S
O6          C18 1.304       .   A
O7          C19 1.304       .   A
O8          C20 1.304       .   A
O9          C18 1.304       .   A
O10         C20 1.304       .   A
O11         C19 1.304       .   A
O12         C21 1.304       .   A
O13         C22 1.304       .   A
O14         C21 1.304       .   A
O15         C22 1.304       .   A
O16         C23 1.304       .   A
O17         C23 1.304       .   A
C18        C201 1.540       .   S
C19        C243 1.540       .   S
C20        C306 1.540       .   S
C21        C206 1.540       .   S
C22        C285 1.540       .   S
C23        C264 1.540       .   S
Zn24        O28 1.942       .   S
Zn24        O29 1.922       .   S
Zn24        O33 1.922       .   S
Zn24        O40 1.922       .   S
Zn25        O28 1.942       .   S
Zn25        O30 1.922       .   S
Zn25        O32 1.922       .   S
Zn25        O36 1.922       .   S
Zn26        O28 1.942       .   S
Zn26        O31 1.922       .   S
Zn26        O34 1.922       .   S
Zn26        O37 1.922       .   S
Zn27        O28 1.942       .   S
Zn27        O35 1.922       .   S
Zn27        O38 1.922       .   S
Zn27        O39 1.922       .   S
O29         C41 1.304       .   A
O30         C42 1.304       .   A
O31         C43 1.304       .   A
O32         C41 1.304       .   A
O33         C43 1.304       .   A
O34         C42 1.304       .   A
O35         C44 1.304       .   A
O36         C45 1.304       .   A
O37         C44 1.304       .   A
O38         C45 1.304       .   A
O39         C46 1.304       .   A
O40         C46 1.304       .   A
C41        C185 1.540   1_655   S
C42        C311 1.540       .   S
C43        C353 1.540       .   S
C44        C222 1.540   1_656   S
C45        C374 1.540       .   S
C46        C348 1.540       .   S
Zn47        O51 1.942       .   S
Zn47        O52 1.922       .   S
Zn47        O56 1.922       .   S
Zn47        O63 1.922       .   S
Zn48        O51 1.942       .   S
Zn48        O53 1.922       .   S
Zn48        O55 1.922       .   S
Zn48        O59 1.922       .   S
Zn49        O51 1.942       .   S
Zn49        O54 1.922       .   S
Zn49        O57 1.922       .   S
Zn49        O60 1.922       .   S
Zn50        O51 1.942       .   S
Zn50        O58 1.922       .   S
Zn50        O61 1.922       .   S
Zn50        O62 1.922       .   S
O52         C64 1.304       .   A
O53         C65 1.304       .   A
O54         C66 1.304       .   A
O55         C64 1.304       .   A
O56         C66 1.304       .   A
O57         C65 1.304       .   A
O58         C67 1.304       .   A
O59         C68 1.304       .   A
O60         C67 1.304       .   A
O61         C68 1.304       .   A
O62         C69 1.304       .   A
O63         C69 1.304       .   A
C64        C269 1.540   1_655   S
C65        C395 1.540       .   S
C66        C437 1.540       .   S
C67        C290 1.540   1_665   S
C68        C458 1.540       .   S
C69        C432 1.540       .   S
Zn70        O74 1.942       .   S
Zn70        O75 1.922       .   S
Zn70        O79 1.922       .   S
Zn70        O86 1.922       .   S
Zn71        O74 1.942       .   S
Zn71        O76 1.922       .   S
Zn71        O78 1.922       .   S
Zn71        O82 1.922       .   S
Zn72        O74 1.942       .   S
Zn72        O77 1.922       .   S
Zn72        O80 1.922       .   S
Zn72        O83 1.922       .   S
Zn73        O74 1.942       .   S
Zn73        O81 1.922       .   S
Zn73        O84 1.922       .   S
Zn73        O85 1.922       .   S
O75         C87 1.304       .   A
O76         C88 1.304       .   A
O77         C89 1.304       .   A
O78         C87 1.304       .   A
O79         C89 1.304       .   A
O80         C88 1.304       .   A
O81         C90 1.304       .   A
O82         C91 1.304       .   A
O83         C90 1.304       .   A
O84         C91 1.304       .   A
O85         C92 1.304       .   A
O86         C92 1.304       .   A
C87        C369 1.540       .   S
C88        C411 1.540       .   S
C89        C500 1.540       .   S
C90        C390 1.540   1_565   S
C91        C479 1.540       .   S
C92        C416 1.540   1_556   S
Zn93        O97 1.942       .   S
Zn93        O98 1.922       .   S
Zn93       O102 1.922       .   S
Zn93       O109 1.922       .   S
Zn94        O97 1.942       .   S
Zn94        O99 1.922       .   S
Zn94       O101 1.922       .   S
Zn94       O105 1.922       .   S
Zn95        O97 1.942       .   S
Zn95       O100 1.922       .   S
Zn95       O103 1.922       .   S
Zn95       O106 1.922       .   S
Zn96        O97 1.942       .   S
Zn96       O104 1.922       .   S
Zn96       O107 1.922       .   S
Zn96       O108 1.922       .   S
O98        C110 1.304       .   A
O99        C111 1.304       .   A
O100       C112 1.304       .   A
O101       C110 1.304       .   A
O102       C112 1.304       .   A
O103       C111 1.304       .   A
O104       C113 1.304       .   A
O105       C114 1.304       .   A
O106       C113 1.304       .   A
O107       C114 1.304       .   A
O108       C115 1.304       .   A
O109       C115 1.304       .   A
C110       C227 1.540   1_565   S
C111       C600 1.540       .   S
C112       C542 1.540       .   S
C113       C248 1.540   1_665   S
C114       C537 1.540       .   S
C115       C563 1.540       .   S
Zn116      O120 1.942       .   S
Zn116      O121 1.922       .   S
Zn116      O125 1.922       .   S
Zn116      O132 1.922       .   S
Zn117      O120 1.942       .   S
Zn117      O122 1.922       .   S
Zn117      O124 1.922       .   S
Zn117      O128 1.922       .   S
Zn118      O120 1.942       .   S
Zn118      O123 1.922       .   S
Zn118      O126 1.922       .   S
Zn118      O129 1.922       .   S
Zn119      O120 1.942       .   S
Zn119      O127 1.922       .   S
Zn119      O130 1.922       .   S
Zn119      O131 1.922       .   S
O121       C133 1.304       .   A
O122       C134 1.304       .   A
O123       C135 1.304       .   A
O124       C133 1.304       .   A
O125       C135 1.304       .   A
O126       C134 1.304       .   A
O127       C136 1.304       .   A
O128       C137 1.304       .   A
O129       C136 1.304       .   A
O130       C137 1.304       .   A
O131       C138 1.304       .   A
O132       C138 1.304       .   A
C133       C327 1.540   1_465   S
C134       C521 1.540       .   S
C135       C605 1.540       .   S
C136       C332 1.540   1_565   S
C137       C626 1.540       .   S
C138       C558 1.540   1_556   S
Zn139      O143 1.942       .   S
Zn139      O144 1.922       .   S
Zn139      O148 1.922       .   S
Zn139      O155 1.922       .   S
Zn140      O143 1.942       .   S
Zn140      O145 1.922       .   S
Zn140      O147 1.922       .   S
Zn140      O151 1.922       .   S
Zn141      O143 1.942       .   S
Zn141      O146 1.922       .   S
Zn141      O149 1.922       .   S
Zn141      O152 1.922       .   S
Zn142      O143 1.942       .   S
Zn142      O150 1.922       .   S
Zn142      O153 1.922       .   S
Zn142      O154 1.922       .   S
O144       C156 1.304       .   A
O145       C157 1.304       .   A
O146       C158 1.304       .   A
O147       C156 1.304       .   A
O148       C158 1.304       .   A
O149       C157 1.304       .   A
O150       C159 1.304       .   A
O151       C160 1.304       .   A
O152       C159 1.304       .   A
O153       C160 1.304       .   A
O154       C161 1.304       .   A
O155       C161 1.304       .   A
C156       C453 1.540   1_455   S
C157       C579 1.540   1_545   S
C158       C668 1.540       .   S
C159       C474 1.540       .   S
C160       C663 1.540       .   S
C161       C584 1.540       .   S
Zn162      O166 1.942       .   S
Zn162      O167 1.922       .   S
Zn162      O171 1.922       .   S
Zn162      O178 1.922       .   S
Zn163      O166 1.942       .   S
Zn163      O168 1.922       .   S
Zn163      O170 1.922       .   S
Zn163      O174 1.922       .   S
Zn164      O166 1.942       .   S
Zn164      O169 1.922       .   S
Zn164      O172 1.922       .   S
Zn164      O175 1.922       .   S
Zn165      O166 1.942       .   S
Zn165      O173 1.922       .   S
Zn165      O176 1.922       .   S
Zn165      O177 1.922       .   S
O167       C179 1.304       .   A
O168       C180 1.304       .   A
O169       C181 1.304       .   A
O170       C179 1.304       .   A
O171       C181 1.304       .   A
O172       C180 1.304       .   A
O173       C182 1.304       .   A
O174       C183 1.304       .   A
O175       C182 1.304       .   A
O176       C183 1.304       .   A
O177       C184 1.304       .   A
O178       C184 1.304       .   A
C179       C684 1.540   1_556   S
C180       C495 1.540   1_455   S
C181       C642 1.540       .   S
C182       C647 1.540       .   S
C183       C621 1.540   1_545   S
C184       C516 1.540       .   S
C668       C669 0.031       .   A
C668       C673 0.031       .   A
C669       C670 0.031       .   A
C669       H676 0.025       .   A
C670       C671 0.032       .   A
C670       H675 0.025       .   A
C671       C672 0.032       .   A
C671       C674 0.032       .   A
C672       C673 0.032       .   A
C672       O688 0.032       .   A
C673       C677 0.026       .   A
C674       C680 0.032       .   A
C674       H683 0.025       .   A
C677       N679 0.026       .   A
C678       H685 0.025       .   A
C678       H686 0.025       .   A
C678       H687 0.025       .   A
C678       O688 0.034       .   A
C680       C681 0.034       .   A
C680       H682 0.025       .   A
C681       C684 0.033       .   A
C647       C648 0.031       .   A
C647       C652 0.031       .   A
C648       C649 0.031       .   A
C648       H655 0.025       .   A
C649       C650 0.032       .   A
C649       H654 0.025       .   A
C650       C651 0.032       .   A
C650       C653 0.032       .   A
C651       C652 0.032       .   A
C651       O667 0.032       .   A
C652       C656 0.026       .   A
C653       C659 0.032       .   A
C653       H662 0.025       .   A
C656       N658 0.026       .   A
C657       H664 0.025       .   A
C657       H665 0.025       .   A
C657       H666 0.025       .   A
C657       O667 0.034       .   A
C659       C660 0.034       .   A
C659       H661 0.025       .   A
C660       C663 0.033       .   A
C626       C627 0.031       .   A
C626       C631 0.031       .   A
C627       C628 0.031       .   A
C627       H634 0.025       .   A
C628       C629 0.032       .   A
C628       H633 0.025       .   A
C629       C630 0.032       .   A
C629       C632 0.032       .   A
C630       C631 0.032       .   A
C630       O646 0.032       .   A
C631       C635 0.026       .   A
C632       C638 0.032       .   A
C632       H641 0.025       .   A
C635       N637 0.026       .   A
C636       H643 0.025       .   A
C636       H644 0.025       .   A
C636       H645 0.025       .   A
C636       O646 0.034       .   A
C638       C639 0.034       .   A
C638       H640 0.025       .   A
C639       C642 0.033       .   A
C605       C606 0.031       .   A
C605       C610 0.031       .   A
C606       C607 0.031       .   A
C606       H613 0.025       .   A
C607       C608 0.032       .   A
C607       H612 0.025       .   A
C608       C609 0.032       .   A
C608       C611 0.032       .   A
C609       C610 0.032       .   A
C609       O625 0.032       .   A
C610       C614 0.026       .   A
C611       C617 0.032       .   A
C611       H620 0.025       .   A
C614       N616 0.026       .   A
C615       H622 0.025       .   A
C615       H623 0.025       .   A
C615       H624 0.025       .   A
C615       O625 0.034       .   A
C617       C618 0.034       .   A
C617       H619 0.025       .   A
C618       C621 0.033       .   A
C584       C585 0.031       .   A
C584       C589 0.031       .   A
C585       C586 0.031       .   A
C585       H592 0.025       .   A
C586       C587 0.032       .   A
C586       H591 0.025       .   A
C587       C588 0.032       .   A
C587       C590 0.032       .   A
C588       C589 0.032       .   A
C588       O604 0.032       .   A
C589       C593 0.026       .   A
C590       C596 0.032       .   A
C590       H599 0.025       .   A
C593       N595 0.026       .   A
C594       H601 0.025       .   A
C594       H602 0.025       .   A
C594       H603 0.025       .   A
C594       O604 0.034       .   A
C596       C597 0.034       .   A
C596       H598 0.025       .   A
C597       C600 0.033       .   A
C563       C564 0.031       .   A
C563       C568 0.031       .   A
C564       C565 0.031       .   A
C564       H571 0.025       .   A
C565       C566 0.032       .   A
C565       H570 0.025       .   A
C566       C567 0.032       .   A
C566       C569 0.032       .   A
C567       C568 0.032       .   A
C567       O583 0.032       .   A
C568       C572 0.026       .   A
C569       C575 0.032       .   A
C569       H578 0.025       .   A
C572       N574 0.026       .   A
C573       H580 0.025       .   A
C573       H581 0.025       .   A
C573       H582 0.025       .   A
C573       O583 0.034       .   A
C575       C576 0.034       .   A
C575       H577 0.025       .   A
C576       C579 0.033       .   A
C542       C543 0.031       .   A
C542       C547 0.031       .   A
C543       C544 0.031       .   A
C543       H550 0.025       .   A
C544       C545 0.032       .   A
C544       H549 0.025       .   A
C545       C546 0.032       .   A
C545       C548 0.032       .   A
C546       C547 0.032       .   A
C546       O562 0.032       .   A
C547       C551 0.026       .   A
C548       C554 0.032       .   A
C548       H557 0.025       .   A
C551       N553 0.026       .   A
C552       H559 0.025       .   A
C552       H560 0.025       .   A
C552       H561 0.025       .   A
C552       O562 0.034       .   A
C554       C555 0.034       .   A
C554       H556 0.025       .   A
C555       C558 0.033       .   A
C521       C522 0.031       .   A
C521       C526 0.031       .   A
C522       C523 0.031       .   A
C522       H529 0.025       .   A
C523       C524 0.032       .   A
C523       H528 0.025       .   A
C524       C525 0.032       .   A
C524       C527 0.032       .   A
C525       C526 0.032       .   A
C525       O541 0.032       .   A
C526       C530 0.026       .   A
C527       C533 0.032       .   A
C527       H536 0.025       .   A
C530       N532 0.026       .   A
C531       H538 0.025       .   A
C531       H539 0.025       .   A
C531       H540 0.025       .   A
C531       O541 0.034       .   A
C533       C534 0.034       .   A
C533       H535 0.025       .   A
C534       C537 0.033       .   A
C500       C501 0.031       .   A
C500       C505 0.031       .   A
C501       C502 0.031       .   A
C501       H508 0.025       .   A
C502       C503 0.032       .   A
C502       H507 0.025       .   A
C503       C504 0.032       .   A
C503       C506 0.032       .   A
C504       C505 0.032       .   A
C504       O520 0.032       .   A
C505       C509 0.026       .   A
C506       C512 0.032       .   A
C506       H515 0.025       .   A
C509       N511 0.026       .   A
C510       H517 0.025       .   A
C510       H518 0.025       .   A
C510       H519 0.025       .   A
C510       O520 0.034       .   A
C512       C513 0.034       .   A
C512       H514 0.025       .   A
C513       C516 0.033       .   A
C479       C480 0.031       .   A
C479       C484 0.031       .   A
C480       C481 0.031       .   A
C480       H487 0.025       .   A
C481       C482 0.032       .   A
C481       H486 0.025       .   A
C482       C483 0.032       .   A
C482       C485 0.032       .   A
C483       C484 0.032       .   A
C483       O499 0.032       .   A
C484       C488 0.026       .   A
C485       C491 0.032       .   A
C485       H494 0.025       .   A
C488       N490 0.026       .   A
C489       H496 0.025       .   A
C489       H497 0.025       .   A
C489       H498 0.025       .   A
C489       O499 0.034       .   A
C491       C492 0.034       .   A
C491       H493 0.025       .   A
C492       C495 0.033       .   A
C458       C459 0.031       .   A
C458       C463 0.031       .   A
C459       C460 0.031       .   A
C459       H466 0.025       .   A
C460       C461 0.032       .   A
C460       H465 0.025       .   A
C461       C462 0.032       .   A
C461       C464 0.032       .   A
C462       C463 0.032       .   A
C462       O478 0.032       .   A
C463       C467 0.026       .   A
C464       C470 0.032       .   A
C464       H473 0.025       .   A
C467       N469 0.026       .   A
C468       H475 0.025       .   A
C468       H476 0.025       .   A
C468       H477 0.025       .   A
C468       O478 0.034       .   A
C470       C471 0.034       .   A
C470       H472 0.025       .   A
C471       C474 0.033       .   A
C437       C438 0.031       .   A
C437       C442 0.031       .   A
C438       C439 0.031       .   A
C438       H445 0.025       .   A
C439       C440 0.032       .   A
C439       H444 0.025       .   A
C440       C441 0.032       .   A
C440       C443 0.032       .   A
C441       C442 0.032       .   A
C441       O457 0.032       .   A
C442       C446 0.026       .   A
C443       C449 0.032       .   A
C443       H452 0.025       .   A
C446       N448 0.026       .   A
C447       H454 0.025       .   A
C447       H455 0.025       .   A
C447       H456 0.025       .   A
C447       O457 0.034       .   A
C449       C450 0.034       .   A
C449       H451 0.025       .   A
C450       C453 0.033       .   A
C416       C417 0.031       .   A
C416       C421 0.031       .   A
C417       C418 0.031       .   A
C417       H424 0.025       .   A
C418       C419 0.032       .   A
C418       H423 0.025       .   A
C419       C420 0.032       .   A
C419       C422 0.032       .   A
C420       C421 0.032       .   A
C420       O436 0.032       .   A
C421       C425 0.026       .   A
C422       C428 0.032       .   A
C422       H431 0.025       .   A
C425       N427 0.026       .   A
C426       H433 0.025       .   A
C426       H434 0.025       .   A
C426       H435 0.025       .   A
C426       O436 0.034       .   A
C428       C429 0.034       .   A
C428       H430 0.025       .   A
C429       C432 0.033       .   A
C395       C396 0.031       .   A
C395       C400 0.031       .   A
C396       C397 0.031       .   A
C396       H403 0.025       .   A
C397       C398 0.032       .   A
C397       H402 0.025       .   A
C398       C399 0.032       .   A
C398       C401 0.032       .   A
C399       C400 0.032       .   A
C399       O415 0.032       .   A
C400       C404 0.026       .   A
C401       C407 0.032       .   A
C401       H410 0.025       .   A
C404       N406 0.026       .   A
C405       H412 0.025       .   A
C405       H413 0.025       .   A
C405       H414 0.025       .   A
C405       O415 0.034       .   A
C407       C408 0.034       .   A
C407       H409 0.025       .   A
C408       C411 0.033       .   A
C374       C375 0.031       .   A
C374       C379 0.031       .   A
C375       C376 0.031       .   A
C375       H382 0.025       .   A
C376       C377 0.032       .   A
C376       H381 0.025       .   A
C377       C378 0.032       .   A
C377       C380 0.032       .   A
C378       C379 0.032       .   A
C378       O394 0.032       .   A
C379       C383 0.026       .   A
C380       C386 0.032       .   A
C380       H389 0.025       .   A
C383       N385 0.026       .   A
C384       H391 0.025       .   A
C384       H392 0.025       .   A
C384       H393 0.025       .   A
C384       O394 0.034       .   A
C386       C387 0.034       .   A
C386       H388 0.025       .   A
C387       C390 0.033       .   A
C353       C354 0.031       .   A
C353       C358 0.031       .   A
C354       C355 0.031       .   A
C354       H361 0.025       .   A
C355       C356 0.032       .   A
C355       H360 0.025       .   A
C356       C357 0.032       .   A
C356       C359 0.032       .   A
C357       C358 0.032       .   A
C357       O373 0.032       .   A
C358       C362 0.026       .   A
C359       C365 0.032       .   A
C359       H368 0.025       .   A
C362       N364 0.026       .   A
C363       H370 0.025       .   A
C363       H371 0.025       .   A
C363       H372 0.025       .   A
C363       O373 0.034       .   A
C365       C366 0.034       .   A
C365       H367 0.025       .   A
C366       C369 0.033       .   A
C332       C333 0.031       .   A
C332       C337 0.031       .   A
C333       C334 0.031       .   A
C333       H340 0.025       .   A
C334       C335 0.032       .   A
C334       H339 0.025       .   A
C335       C336 0.032       .   A
C335       C338 0.032       .   A
C336       C337 0.032       .   A
C336       O352 0.032       .   A
C337       C341 0.026       .   A
C338       C344 0.032       .   A
C338       H347 0.025       .   A
C341       N343 0.026       .   A
C342       H349 0.025       .   A
C342       H350 0.025       .   A
C342       H351 0.025       .   A
C342       O352 0.034       .   A
C344       C345 0.034       .   A
C344       H346 0.025       .   A
C345       C348 0.033       .   A
C311       C312 0.031       .   A
C311       C316 0.031       .   A
C312       C313 0.031       .   A
C312       H319 0.025       .   A
C313       C314 0.032       .   A
C313       H318 0.025       .   A
C314       C315 0.032       .   A
C314       C317 0.032       .   A
C315       C316 0.032       .   A
C315       O331 0.032       .   A
C316       C320 0.026       .   A
C317       C323 0.032       .   A
C317       H326 0.025       .   A
C320       N322 0.026       .   A
C321       H328 0.025       .   A
C321       H329 0.025       .   A
C321       H330 0.025       .   A
C321       O331 0.034       .   A
C323       C324 0.034       .   A
C323       H325 0.025       .   A
C324       C327 0.033       .   A
C290       C291 0.031       .   A
C290       C295 0.031       .   A
C291       C292 0.031       .   A
C291       H298 0.025       .   A
C292       C293 0.032       .   A
C292       H297 0.025       .   A
C293       C294 0.032       .   A
C293       C296 0.032       .   A
C294       C295 0.032       .   A
C294       O310 0.032       .   A
C295       C299 0.026       .   A
C296       C302 0.032       .   A
C296       H305 0.025       .   A
C299       N301 0.026       .   A
C300       H307 0.025       .   A
C300       H308 0.025       .   A
C300       H309 0.025       .   A
C300       O310 0.034       .   A
C302       C303 0.034       .   A
C302       H304 0.025       .   A
C303       C306 0.033       .   A
C269       C270 0.031       .   A
C269       C274 0.031       .   A
C270       C271 0.031       .   A
C270       H277 0.025       .   A
C271       C272 0.032       .   A
C271       H276 0.025       .   A
C272       C273 0.032       .   A
C272       C275 0.032       .   A
C273       C274 0.032       .   A
C273       O289 0.032       .   A
C274       C278 0.026       .   A
C275       C281 0.032       .   A
C275       H284 0.025       .   A
C278       N280 0.026       .   A
C279       H286 0.025       .   A
C279       H287 0.025       .   A
C279       H288 0.025       .   A
C279       O289 0.034       .   A
C281       C282 0.034       .   A
C281       H283 0.025       .   A
C282       C285 0.033       .   A
C248       C249 0.031       .   A
C248       C253 0.031       .   A
C249       C250 0.031       .   A
C249       H256 0.025       .   A
C250       C251 0.032       .   A
C250       H255 0.025       .   A
C251       C252 0.032       .   A
C251       C254 0.032       .   A
C252       C253 0.032       .   A
C252       O268 0.032       .   A
C253       C257 0.026       .   A
C254       C260 0.032       .   A
C254       H263 0.025       .   A
C257       N259 0.026       .   A
C258       H265 0.025       .   A
C258       H266 0.025       .   A
C258       H267 0.025       .   A
C258       O268 0.034       .   A
C260       C261 0.034       .   A
C260       H262 0.025       .   A
C261       C264 0.033       .   A
C227       C228 0.031       .   A
C227       C232 0.031       .   A
C228       C229 0.031       .   A
C228       H235 0.025       .   A
C229       C230 0.032       .   A
C229       H234 0.025       .   A
C230       C231 0.032       .   A
C230       C233 0.032       .   A
C231       C232 0.032       .   A
C231       O247 0.032       .   A
C232       C236 0.026       .   A
C233       C239 0.032       .   A
C233       H242 0.025       .   A
C236       N238 0.026       .   A
C237       H244 0.025       .   A
C237       H245 0.025       .   A
C237       H246 0.025       .   A
C237       O247 0.034       .   A
C239       C240 0.034       .   A
C239       H241 0.025       .   A
C240       C243 0.033       .   A
C206       C207 0.031       .   A
C206       C211 0.031       .   A
C207       C208 0.031       .   A
C207       H214 0.025       .   A
C208       C209 0.032       .   A
C208       H213 0.025       .   A
C209       C210 0.032       .   A
C209       C212 0.032       .   A
C210       C211 0.032       .   A
C210       O226 0.032       .   A
C211       C215 0.026       .   A
C212       C218 0.032       .   A
C212       H221 0.025       .   A
C215       N217 0.026       .   A
C216       H223 0.025       .   A
C216       H224 0.025       .   A
C216       H225 0.025       .   A
C216       O226 0.034       .   A
C218       C219 0.034       .   A
C218       H220 0.025       .   A
C219       C222 0.033       .   A
C185       C186 0.031       .   A
C185       C190 0.031       .   A
C186       C187 0.031       .   A
C186       H193 0.025       .   A
C187       C188 0.032       .   A
C187       H192 0.025       .   A
C188       C189 0.032       .   A
C188       C191 0.032       .   A
C189       C190 0.032       .   A
C189       O205 0.032       .   A
C190       C194 0.026       .   A
C191       C197 0.032       .   A
C191       H200 0.025       .   A
C194       N196 0.026       .   A
C195       H202 0.025       .   A
C195       H203 0.025       .   A
C195       H204 0.025       .   A
C195       O205 0.034       .   A
C197       C198 0.034       .   A
C197       H199 0.025       .   A
C198       C201 0.033       .   A
