data_pcu_v1-6c_Zn_1_Ch_1-31_fer_tobacco
_audit_creation_date              2021-04-07
_audit_creation_method            'tobacco_3.0'
_symmetry_space_group_name_H-M    'P1'
_symmetry_Int_Tables_number       1
_symmetry_cell_setting            triclinic
loop_
_symmetry_equiv_pos_as_xyz
  x,y,z
_cell_length_a                    43.80508300479647
_cell_length_b                    43.80508300479647
_cell_length_c                    43.80508300479647
_cell_angle_alpha                 90.0
_cell_angle_beta                  90.0
_cell_angle_gamma                 90.0
loop_
_atom_site_label
_atom_site_type_symbol
_atom_site_fract_x
_atom_site_fract_y
_atom_site_fract_z
_atom_site_charge
Zn1       Zn    0.0255952032   -0.0255952032    0.0255952032          1.4972
Zn2       Zn   -0.0255952032   -0.0255952032   -0.0255952032          1.4936
Zn3       Zn   -0.0255952032    0.0255952032    0.0255952032          1.4911
Zn4       Zn    0.0255952032    0.0255952032   -0.0255952032          1.4948
O5         O    0.0000000000    0.0000000000    0.0000000000         -2.3322
O6         O    0.0188106024   -0.0684075864    0.0188106024         -1.2385
O7         O   -0.0684075864   -0.0188106024   -0.0188106024         -1.2367
O8         O   -0.0188106024    0.0188106024    0.0684075864         -1.2318
O9         O   -0.0188106024   -0.0684075864   -0.0188106024         -1.2386
O10        O    0.0188106024   -0.0188106024    0.0684075864         -1.2346
O11        O   -0.0684075864    0.0188106024    0.0188106024         -1.2404
O12        O    0.0188106024    0.0684075864   -0.0188106024         -1.2343
O13        O   -0.0188106024   -0.0188106024   -0.0684075864         -1.2419
O14        O   -0.0188106024    0.0684075864    0.0188106024         -1.2358
O15        O    0.0188106024    0.0188106024   -0.0684075864         -1.2405
O16        O    0.0684075864    0.0188106024   -0.0188106024         -1.2396
O17        O    0.0684075864   -0.0188106024    0.0188106024         -1.2375
C18        C    0.0000000000   -0.0817895950   -0.0000000000          0.2804
C19        C   -0.0817895950    0.0000000000    0.0000000000          0.2853
C20        C    0.0000000000   -0.0000000000    0.0817895950          0.2749
C21        C   -0.0000000000    0.0817895950    0.0000000000          0.2787
C22        C   -0.0000000000    0.0000000000   -0.0817895950          0.2901
C23        C    0.0817895950   -0.0000000000   -0.0000000000          0.2806
Zn24      Zn    0.9744047968    0.0255952032    0.4744047968          1.4972
Zn25      Zn    1.0255952032   -0.0255952032    0.4744047968          1.4936
Zn26      Zn    1.0255952032    0.0255952032    0.5255952032          1.4911
Zn27      Zn    0.9744047968   -0.0255952032    0.5255952032          1.4948
O28        O    1.0000000000    0.0000000000    0.5000000000         -2.3322
O29        O    0.9811893976    0.0188106024    0.4315924136         -1.2385
O30        O    1.0684075864   -0.0188106024    0.4811893976         -1.2367
O31        O    1.0188106024    0.0684075864    0.5188106024         -1.2318
O32        O    1.0188106024   -0.0188106024    0.4315924136         -1.2386
O33        O    0.9811893976    0.0684075864    0.4811893976         -1.2346
O34        O    1.0684075864    0.0188106024    0.5188106024         -1.2404
O35        O    0.9811893976   -0.0188106024    0.5684075864         -1.2343
O36        O    1.0188106024   -0.0684075864    0.4811893976         -1.2419
O37        O    1.0188106024    0.0188106024    0.5684075864         -1.2358
O38        O    0.9811893976   -0.0684075864    0.5188106024         -1.2405
O39        O    0.9315924136   -0.0188106024    0.5188106024         -1.2396
O40        O    0.9315924136    0.0188106024    0.4811893976         -1.2375
C41        C    1.0000000000    0.0000000000    0.4182104050          0.2804
C42        C    1.0817895950    0.0000000000    0.5000000000          0.2853
C43        C    1.0000000000    0.0817895950    0.5000000000          0.2749
C44        C    1.0000000000    0.0000000000    0.5817895950          0.2787
C45        C    1.0000000000   -0.0817895950    0.5000000000          0.2901
C46        C    0.9182104050    0.0000000000    0.5000000000          0.2806
Zn47      Zn    1.0255952032    0.4744047968   -0.0255952032          1.4972
Zn48      Zn    0.9744047968    0.4744047968    0.0255952032          1.4936
Zn49      Zn    1.0255952032    0.5255952032    0.0255952032          1.4911
Zn50      Zn    0.9744047968    0.5255952032   -0.0255952032          1.4948
O51        O    1.0000000000    0.5000000000    0.0000000000         -2.3322
O52        O    1.0188106024    0.4315924136   -0.0188106024         -1.2385
O53        O    0.9811893976    0.4811893976    0.0684075864         -1.2367
O54        O    1.0684075864    0.5188106024    0.0188106024         -1.2318
O55        O    0.9811893976    0.4315924136    0.0188106024         -1.2386
O56        O    1.0684075864    0.4811893976   -0.0188106024         -1.2346
O57        O    1.0188106024    0.5188106024    0.0684075864         -1.2404
O58        O    0.9811893976    0.5684075864   -0.0188106024         -1.2343
O59        O    0.9315924136    0.4811893976    0.0188106024         -1.2419
O60        O    1.0188106024    0.5684075864    0.0188106024         -1.2358
O61        O    0.9315924136    0.5188106024   -0.0188106024         -1.2405
O62        O    0.9811893976    0.5188106024   -0.0684075864         -1.2396
O63        O    1.0188106024    0.4811893976   -0.0684075864         -1.2375
C64        C    1.0000000000    0.4182104050    0.0000000000          0.2804
C65        C    1.0000000000    0.5000000000    0.0817895950          0.2853
C66        C    1.0817895950    0.5000000000    0.0000000000          0.2749
C67        C    1.0000000000    0.5817895950    0.0000000000          0.2787
C68        C    0.9182104050    0.5000000000    0.0000000000          0.2901
C69        C    1.0000000000    0.5000000000   -0.0817895950          0.2806
Zn70      Zn    0.9744047968    0.4744047968    0.5255952032          1.4972
Zn71      Zn    1.0255952032    0.4744047968    0.4744047968          1.4936
Zn72      Zn    0.9744047968    0.5255952032    0.4744047968          1.4911
Zn73      Zn    1.0255952032    0.5255952032    0.5255952032          1.4948
O74        O    1.0000000000    0.5000000000    0.5000000000         -2.3322
O75        O    0.9811893976    0.4315924136    0.5188106024         -1.2385
O76        O    1.0188106024    0.4811893976    0.4315924136         -1.2367
O77        O    0.9315924136    0.5188106024    0.4811893976         -1.2318
O78        O    1.0188106024    0.4315924136    0.4811893976         -1.2386
O79        O    0.9315924136    0.4811893976    0.5188106024         -1.2346
O80        O    0.9811893976    0.5188106024    0.4315924136         -1.2404
O81        O    1.0188106024    0.5684075864    0.5188106024         -1.2343
O82        O    1.0684075864    0.4811893976    0.4811893976         -1.2419
O83        O    0.9811893976    0.5684075864    0.4811893976         -1.2358
O84        O    1.0684075864    0.5188106024    0.5188106024         -1.2405
O85        O    1.0188106024    0.5188106024    0.5684075864         -1.2396
O86        O    0.9811893976    0.4811893976    0.5684075864         -1.2375
C87        C    1.0000000000    0.4182104050    0.5000000000          0.2804
C88        C    1.0000000000    0.5000000000    0.4182104050          0.2853
C89        C    0.9182104050    0.5000000000    0.5000000000          0.2749
C90        C    1.0000000000    0.5817895950    0.5000000000          0.2787
C91        C    1.0817895950    0.5000000000    0.5000000000          0.2901
C92        C    1.0000000000    0.5000000000    0.5817895950          0.2806
Zn93      Zn    0.4744047968    0.9744047968   -0.0255952032          1.4972
Zn94      Zn    0.4744047968    1.0255952032    0.0255952032          1.4936
Zn95      Zn    0.5255952032    0.9744047968    0.0255952032          1.4911
Zn96      Zn    0.5255952032    1.0255952032   -0.0255952032          1.4948
O97        O    0.5000000000    1.0000000000    0.0000000000         -2.3322
O98        O    0.4315924136    0.9811893976   -0.0188106024         -1.2385
O99        O    0.4811893976    1.0188106024    0.0684075864         -1.2367
O100       O    0.5188106024    0.9315924136    0.0188106024         -1.2318
O101       O    0.4315924136    1.0188106024    0.0188106024         -1.2386
O102       O    0.4811893976    0.9315924136   -0.0188106024         -1.2346
O103       O    0.5188106024    0.9811893976    0.0684075864         -1.2404
O104       O    0.5684075864    1.0188106024   -0.0188106024         -1.2343
O105       O    0.4811893976    1.0684075864    0.0188106024         -1.2419
O106       O    0.5684075864    0.9811893976    0.0188106024         -1.2358
O107       O    0.5188106024    1.0684075864   -0.0188106024         -1.2405
O108       O    0.5188106024    1.0188106024   -0.0684075864         -1.2396
O109       O    0.4811893976    0.9811893976   -0.0684075864         -1.2375
C110       C    0.4182104050    1.0000000000    0.0000000000          0.2804
C111       C    0.5000000000    1.0000000000    0.0817895950          0.2853
C112       C    0.5000000000    0.9182104050    0.0000000000          0.2749
C113       C    0.5817895950    1.0000000000    0.0000000000          0.2787
C114       C    0.5000000000    1.0817895950    0.0000000000          0.2901
C115       C    0.5000000000    1.0000000000   -0.0817895950          0.2806
Zn116     Zn    0.4744047968    1.0255952032    0.5255952032          1.4972
Zn117     Zn    0.4744047968    0.9744047968    0.4744047968          1.4936
Zn118     Zn    0.5255952032    1.0255952032    0.4744047968          1.4911
Zn119     Zn    0.5255952032    0.9744047968    0.5255952032          1.4948
O120       O    0.5000000000    1.0000000000    0.5000000000         -2.3322
O121       O    0.4315924136    1.0188106024    0.5188106024         -1.2385
O122       O    0.4811893976    0.9811893976    0.4315924136         -1.2367
O123       O    0.5188106024    1.0684075864    0.4811893976         -1.2318
O124       O    0.4315924136    0.9811893976    0.4811893976         -1.2386
O125       O    0.4811893976    1.0684075864    0.5188106024         -1.2346
O126       O    0.5188106024    1.0188106024    0.4315924136         -1.2404
O127       O    0.5684075864    0.9811893976    0.5188106024         -1.2343
O128       O    0.4811893976    0.9315924136    0.4811893976         -1.2419
O129       O    0.5684075864    1.0188106024    0.4811893976         -1.2358
O130       O    0.5188106024    0.9315924136    0.5188106024         -1.2405
O131       O    0.5188106024    0.9811893976    0.5684075864         -1.2396
O132       O    0.4811893976    1.0188106024    0.5684075864         -1.2375
C133       C    0.4182104050    1.0000000000    0.5000000000          0.2804
C134       C    0.5000000000    1.0000000000    0.4182104050          0.2853
C135       C    0.5000000000    1.0817895950    0.5000000000          0.2749
C136       C    0.5817895950    1.0000000000    0.5000000000          0.2787
C137       C    0.5000000000    0.9182104050    0.5000000000          0.2901
C138       C    0.5000000000    1.0000000000    0.5817895950          0.2806
Zn139     Zn    0.4744047968    0.5255952032   -0.0255952032          1.4972
Zn140     Zn    0.4744047968    0.4744047968    0.0255952032          1.4936
Zn141     Zn    0.5255952032    0.4744047968   -0.0255952032          1.4911
Zn142     Zn    0.5255952032    0.5255952032    0.0255952032          1.4948
O143       O    0.5000000000    0.5000000000    0.0000000000         -2.3322
O144       O    0.4315924136    0.5188106024   -0.0188106024         -1.2385
O145       O    0.4811893976    0.4315924136    0.0188106024         -1.2367
O146       O    0.5188106024    0.4811893976   -0.0684075864         -1.2318
O147       O    0.4315924136    0.4811893976    0.0188106024         -1.2386
O148       O    0.4811893976    0.5188106024   -0.0684075864         -1.2346
O149       O    0.5188106024    0.4315924136   -0.0188106024         -1.2404
O150       O    0.5684075864    0.5188106024    0.0188106024         -1.2343
O151       O    0.4811893976    0.4811893976    0.0684075864         -1.2419
O152       O    0.5684075864    0.4811893976   -0.0188106024         -1.2358
O153       O    0.5188106024    0.5188106024    0.0684075864         -1.2405
O154       O    0.5188106024    0.5684075864    0.0188106024         -1.2396
O155       O    0.4811893976    0.5684075864   -0.0188106024         -1.2375
C156       C    0.4182104050    0.5000000000    0.0000000000          0.2804
C157       C    0.5000000000    0.4182104050    0.0000000000          0.2853
C158       C    0.5000000000    0.5000000000   -0.0817895950          0.2749
C159       C    0.5817895950    0.5000000000    0.0000000000          0.2787
C160       C    0.5000000000    0.5000000000    0.0817895950          0.2901
C161       C    0.5000000000    0.5817895950    0.0000000000          0.2806
Zn162     Zn    0.4744047968    0.4744047968    0.5255952032          1.4972
Zn163     Zn    0.4744047968    0.5255952032    0.4744047968          1.4936
Zn164     Zn    0.5255952032    0.5255952032    0.5255952032          1.4911
Zn165     Zn    0.5255952032    0.4744047968    0.4744047968          1.4948
O166       O    0.5000000000    0.5000000000    0.5000000000         -2.3322
O167       O    0.4315924136    0.4811893976    0.5188106024         -1.2385
O168       O    0.4811893976    0.5684075864    0.4811893976         -1.2367
O169       O    0.5188106024    0.5188106024    0.5684075864         -1.2318
O170       O    0.4315924136    0.5188106024    0.4811893976         -1.2386
O171       O    0.4811893976    0.4811893976    0.5684075864         -1.2346
O172       O    0.5188106024    0.5684075864    0.5188106024         -1.2404
O173       O    0.5684075864    0.4811893976    0.4811893976         -1.2343
O174       O    0.4811893976    0.5188106024    0.4315924136         -1.2419
O175       O    0.5684075864    0.5188106024    0.5188106024         -1.2358
O176       O    0.5188106024    0.4811893976    0.4315924136         -1.2405
O177       O    0.5188106024    0.4315924136    0.4811893976         -1.2396
O178       O    0.4811893976    0.4315924136    0.5188106024         -1.2375
C179       C    0.4182104050    0.5000000000    0.5000000000          0.2804
C180       C    0.5000000000    0.5817895950    0.5000000000          0.2853
C181       C    0.5000000000    0.5000000000    0.5817895950          0.2749
C182       C    0.5817895950    0.5000000000    0.5000000000          0.2787
C183       C    0.5000000000    0.5000000000    0.4182104050          0.2901
C184       C    0.5000000000    0.4182104050    0.5000000000          0.2806
C829       C    0.5000000000    0.5000000000   -0.3830546674          0.5039
C830       C    0.4958250301    0.4740125790   -0.3672251597          0.5004
C831       C    0.4972194372    0.4728160054   -0.3367283742          0.5018
C832       C    0.5026285961    0.4989869562   -0.3202472138         -0.4934
C833       C    0.5084728724    0.5253690896   -0.3366401902         -0.4885
C834       C    0.5064222249    0.5252305064   -0.3671986497         -0.4905
C835       C    0.4920781552    0.5007580406   -0.2905318679          0.4979
H836       H    0.4939800185    0.4510780200   -0.3251200690          0.4991
H837       H    0.4912000862    0.4526554122   -0.3790651190          0.4963
H838       H    0.5107432798    0.5463948188   -0.3794605105         -0.4869
N839       N    0.5164954909    0.5503541698   -0.3207734026         -0.4815
C840       C    0.5081713033    0.4887127569   -0.2674870099         -0.4884
C841       C    0.4989112376    0.4928762388   -0.2376976602           0.504
H842       H    0.5289920928    0.4759564973   -0.2720975482         -0.4708
H843       H    0.4714151458    0.5137514228   -0.2858235995          0.4805
C844       C    0.4975173717    0.4675092716   -0.2190746349          0.5029
C845       C    0.4981645347    0.4708125419   -0.1886887768          0.5037
C846       C    0.4998302047    0.4981491377   -0.1752441855          0.5053
C847       C    0.5009226954    0.5229568913   -0.1931153814         -0.4938
C848       C    0.5004771935    0.5210390940   -0.2236541728          0.5056
C849       C    0.5003009135    0.5003098949   -0.1451121974           0.506
H850       H    0.4971803673    0.4503542058   -0.1745967205          0.5029
H851       H    0.4960528014    0.4448285617   -0.2289489869          0.5015
H852       H    0.5012514623    0.5417087266   -0.2373759646         -0.4938
H853       H    0.5021781753    0.5455324902   -0.1828231575         -0.4926
C854       C    0.5000000000    0.5000000000   -0.1169453326          0.5059
H855       H    0.5301023540    0.5476379939   -0.3021329393         -0.4699
H856       H    0.4998275131    0.5652732347   -0.3144629489          0.5045
C801       C    0.5000000000    0.5000000000    0.3830546674          0.5039
C802       C    0.5072078563    0.4746855134    0.3672251597          0.5004
C803       C    0.5059641484    0.4733329787    0.3367283742          0.5018
C804       C    0.4975090756    0.4986842984    0.3202472138         -0.4934
C805       C    0.4885970337    0.5241940619    0.3366401902         -0.4885
C806       C    0.4906497257    0.5242980616    0.3671986497         -0.4905
C807       C    0.5077773480    0.5016861517    0.2905318679          0.4979
H808       H    0.5117422805    0.4521280964    0.3251200690          0.4991
H809       H    0.5143169926    0.4540220466    0.3790651190          0.4963
H810       H    0.4838650847    0.5448058231    0.3794605105         -0.4869
N811       N    0.4776864309    0.5480598404    0.3207734026         -0.4815
C812       C    0.4932155342    0.4878285959    0.2674870099         -0.4884
C813       C    0.5019205356    0.4930541436    0.2376976602           0.504
H814       H    0.4740427808    0.4727079822    0.2720975482         -0.4708
H815       H    0.5267654816    0.5170236458    0.2858235995          0.4805
C816       C    0.5062935550    0.4680281055    0.2190746349          0.5029
C817       C    0.5052616922    0.4712321144    0.1886887768          0.5037
C818       C    0.5003866904    0.4981820363    0.1752441855          0.5053
C819       C    0.4963788362    0.5226882656    0.1931153814         -0.4938
C820       C    0.4970471994    0.5208363182    0.2236541728          0.5056
C821       C    0.4996646692    0.5002722812    0.1451121974           0.506
H822       H    0.5086495075    0.4510322430    0.1745967205          0.5029
H823       H    0.5104202781    0.4456779439    0.2289489869          0.5015
H824       H    0.4938429246    0.5412707457    0.2373759646         -0.4938
H825       H    0.4924721318    0.5449586845    0.1828231575         -0.4926
C826       C    0.5000000000    0.5000000000    0.1169453326          0.5059
H827       H    0.4644943815    0.5437593559    0.3021329393         -0.4699
H828       H    0.4924804671    0.5648388891    0.3144629489          0.5045
C773       C    0.5000000000    0.6169453326    0.5000000000          0.5039
C774       C    0.5067361596    0.6327748403    0.4745559324          0.5004
C775       C    0.5054675306    0.6632716258    0.4732267446          0.5018
C776       C    0.4974850544    0.6797527862    0.4987308177         -0.4934
C777       C    0.4890486326    0.6633598098    0.5244017996         -0.4885
C778       C    0.4911029029    0.6328013503    0.5244676335         -0.4905
C779       C    0.5078073408    0.7094681321    0.5015413240          0.4979
H780       H    0.5108505870    0.6748799310    0.4519181420          0.4991
H781       H    0.5134600521    0.6209348810    0.4537639159          0.4963
H782       H    0.4847005559    0.6205394895    0.5450979410         -0.4869
N783       N    0.4785834427    0.6792265974    0.5484662223         -0.4815
C784       C    0.4929905090    0.7325129901    0.4879567824         -0.4884
C785       C    0.5017911201    0.7623023398    0.4930196514           0.504
H786       H    0.4735400608    0.7279024518    0.4731950922         -0.4708
H787       H    0.5270772315    0.7141764005    0.5165232881          0.4805
C788       C    0.5056982930    0.7809253651    0.4679166659          0.5029
C789       C    0.5047261526    0.8113112232    0.4711392979          0.5037
C790       C    0.5003528380    0.8247558145    0.4981751639          0.5053
C791       C    0.4968011070    0.8068846186    0.5227516441         -0.4938
C792       C    0.4974349376    0.7763458272    0.5208875954          0.5056
C793       C    0.4996697873    0.8548878026    0.5002784660           0.506
H794       H    0.5077379824    0.8254032795    0.4508799549          0.5029
H795       H    0.5094089414    0.7710510131    0.4454936719          0.5015
H796       H    0.4946109756    0.7626240354    0.5413780431         -0.4938
H797       H    0.4933089573    0.8171768425    0.5450908201         -0.4926
C798       C    0.5000000000    0.8830546674    0.5000000000          0.5059
H799       H    0.4653137502    0.6978670607    0.5444116454         -0.4699
H800       H    0.4936867508    0.6855370511    0.5649674365          0.5045
C745       C    0.5000000000    1.1169453326    0.5000000000          0.5039
C746       C    0.5131318689    1.1327748403    0.4771892472          0.5004
C747       C    0.5122533015    1.1632716258    0.4755754694          0.5018
C748       C    0.4979025163    1.1797527862    0.4981194848         -0.4934
C749       C    0.4830699785    1.1633598098    0.5207063915         -0.4885
C750       C    0.4850361704    1.1328013503    0.5213050987         -0.4905
C751       C    0.5071362525    1.2094681321    0.5035219526          0.4979
H752       H    0.5230014795    1.1748799310    0.4564049057          0.4991
H753       H    0.5250400146    1.1209348810    0.4588667270          0.4963
H754       H    0.4734805940    1.1205394895    0.5395552573         -0.4869
N755       N    0.4666972364    1.1792265974    0.5412137061         -0.4815
C756       C    0.4963698388    1.2325129901    0.4865465995         -0.4884
C757       C    0.5035476888    1.2623023398    0.4937272588           0.504
H758       H    0.4814364476    1.2279024518    0.4672276643         -0.4708
H759       H    0.5218379381    1.2141764005    0.5230065203          0.4805
C760       C    0.5138593950    1.2809253651    0.4705088481          0.5029
C761       C    0.5120813103    1.3113112232    0.4733669644          0.5037
C762       C    0.5008160332    1.3247558145    0.4983300864          0.5053
C763       C    0.4909846534    1.3068846186    0.5211327649         -0.4938
C764       C    0.4920821924    1.2763458272    0.5194981925          0.5056
C765       C    0.4996086470    1.3548878026    0.5001828295           0.506
H766       H    0.5202667972    1.3254032795    0.4545917173          0.5029
H767       H    0.5232832126    1.2710510131    0.4498267005          0.5015
H768       H    0.4840178830    1.2626240354    0.5385455052         -0.4938
H769       H    0.4817936253    1.3171768425    0.5417909085         -0.4926
C770       C    0.5000000000    1.3830546674    0.5000000000          0.5059
H771       H    0.4549419460    1.1978670607    0.5338423099         -0.4699
H772       H    0.4769804290    1.1855370511    0.5610796552          0.5045
C717       C    0.5000000000    0.8830546674    0.0000000000          0.5039
C718       C    0.4799462820    0.8672251597    0.0170477218          0.5004
C719       C    0.4782000239    0.8367283742    0.0164761080          0.5018
C720       C    0.4977705567    0.8202472138   -0.0017220214         -0.4934
C721       C    0.5172959788    0.8366401902   -0.0204017006         -0.4885
C722       C    0.5182410424    0.8671986497   -0.0185765389         -0.4905
C723       C    0.5047567165    0.7905318679    0.0063799606          0.4979
H724       H    0.4612943226    0.8251200690    0.0305200073          0.4991
H725       H    0.4640847684    0.8790651190    0.0320787253          0.4963
H726       H    0.5340952765    0.8794605105   -0.0332476975         -0.4869
N727       N    0.5344971532    0.8207734026   -0.0402192746         -0.4815
C728       C    0.4861115225    0.7674870099   -0.0011323636         -0.4884
C729       C    0.4944739203    0.7376976602    0.0046255616           0.504
H730       H    0.4644064986    0.7720975482   -0.0123180405         -0.4708
H731       H    0.5265826470    0.7858235995    0.0173077554          0.4805
C732       C    0.4735082890    0.7190746349    0.0189736692          0.5029
C733       C    0.4759969123    0.6886887768    0.0167071369          0.5037
C734       C    0.4985055909    0.6752441855    0.0011051077          0.5053
C735       C    0.5191494048    0.6931153814   -0.0126952952         -0.4938
C736       C    0.5177407597    0.7236541728   -0.0113197453          0.5056
C737       C    0.5001088914    0.6451121974   -0.0004180029           0.506
H738       H    0.4590156335    0.6745967205    0.0281591355          0.5029
H739       H    0.4548760559    0.7289489869    0.0319890238          0.5015
H740       H    0.5350115574    0.7373759646   -0.0227018695         -0.4938
H741       H    0.5378002119    0.6828231575   -0.0254773643         -0.4926
C742       C    0.5000000000    0.6169453326    0.0000000000          0.5059
H743       H    0.5251177603    0.8021329393   -0.0504443088         -0.4699
H744       H    0.5558975371    0.8144629489   -0.0337059382          0.5045
C689       C    0.5000000000    1.3830546674    0.0000000000          0.5039
C690       C    0.4916730784    1.3672251597    0.0249687565          0.5004
C691       C    0.4898831992    1.3367283742    0.0253840784          0.5018
C692       C    0.4972010223    1.3202472138   -0.0003185894         -0.4934
C693       C    0.5042308794    1.3366401902   -0.0264098454         -0.4885
C694       C    0.5059845271    1.3671986497   -0.0253378938         -0.4905
C695       C    0.5073731335    1.2905318679    0.0029945203          0.4979
H696       H    0.4826937363    1.3251200690    0.0461529364          0.4991
H697       H    0.4858880637    1.3790651190    0.0460413046          0.4963
H698       H    0.5119496637    1.3794605105   -0.0460988374         -0.4869
N699       N    0.5086831527    1.3207734026   -0.0522708952         -0.4815
C700       C    0.4875324842    1.2674870099    0.0062235925         -0.4884
C701       C    0.4976680253    1.2376976602    0.0068187441           0.504
H702       H    0.4631719734    1.2720975482    0.0078948033         -0.4708
H703       H    0.5317035288    1.2858235995    0.0010400875          0.4805
C704       C    0.4871629707    1.2190746349    0.0299503181          0.5029
C705       C    0.4881181545    1.1886887768    0.0267226195          0.5037
C706       C    0.4992938763    1.1752441855    0.0017192762          0.5053
C707       C    0.5098072618    1.1931153814   -0.0207770990         -0.4938
C708       C    0.5093145574    1.2236541728   -0.0188708826          0.5056
C709       C    0.4998766857    1.1451121974   -0.0004139775           0.506
H710       H    0.4795217953    1.1745967205    0.0453133351          0.5029
H711       H    0.4779638773    1.2289489869    0.0507333941          0.5015
H712       H    0.5181947751    1.2373759646   -0.0375517535         -0.4938
H713       H    0.5191430538    1.1828231575   -0.0413702260         -0.4926
C714       C    0.5000000000    1.1169453326    0.0000000000          0.5059
H715       H    0.4953642696    1.3021329393   -0.0561608420         -0.4699
H716       H    0.5303634353    1.3144629489   -0.0577813700          0.5045
C661       C    0.5000000000    1.0000000000   -0.1169453326          0.5039
C662       C    0.4740147146    0.9958117588   -0.1327748403          0.5004
C663       C    0.4728174290    0.9972055546   -0.1632716258          0.5018
C664       C    0.4989856139    1.0026280784   -0.1797527862         -0.4934
C665       C    0.5253647592    1.0084858274   -0.1633598098         -0.4885
C666       C    0.5252272233    1.0064351093   -0.1328013503         -0.4905
C667       C    0.5007620862    0.9920785434   -0.2094681321          0.4979
H668       H    0.4510811008    0.9939550346   -0.1748799310          0.4991
H669       H    0.4526599125    0.9911759083   -0.1209348810          0.4963
H670       H    0.5463893261    1.0107669724   -0.1205394895         -0.4869
N671       N    0.5503457389    1.0165212047   -0.1792265974         -0.4815
C672       C    0.4887085853    1.0081655378   -0.2325129901         -0.4884
C673       C    0.4928767957    0.9989075996   -0.2623023398           0.504
H674       H    0.4759416941    1.0289798099   -0.2279024518         -0.4708
H675       H    0.5137660194    0.9714221724   -0.2141764005          0.4805
C676       C    0.4675105438    0.9975007789   -0.2809253651          0.5029
C677       C    0.4708134831    0.9981496288   -0.3113112232          0.5037
C678       C    0.4981492247    0.9998292595   -0.3247558145          0.5053
C679       C    0.5229564171    1.0009344195   -0.3068846186         -0.4938
C680       C    0.5210388475    1.0004879382   -0.2763458272          0.5056
C681       C    0.5003097412    1.0003010717   -0.3548878026           0.506
H682       H    0.4503556523    0.9971550134   -0.3254032795          0.5029
H683       H    0.4448305848    0.9960246257   -0.2710510131          0.5015
H684       H    0.5417080820    1.0012727629   -0.2626240354         -0.4938
H685       H    0.5455313718    1.0022014286   -0.3171768425         -0.4926
C686       C    0.5000000000    1.0000000000   -0.3830546674          0.5059
H687       H    0.5476226143    1.0301266789   -0.1978670607         -0.4699
H688       H    0.5652733143    0.9998608483   -0.1855370511          0.5045
C633       C    0.5000000000    1.0000000000    0.3830546674          0.5039
C634       C    0.5259739224    1.0042581425    0.3672251597          0.5004
C635       C    0.5271749539    1.0028675732    0.3367283742          0.5018
C636       C    0.5010214536    0.9973746605    0.3202472138         -0.4934
C637       C    0.4746581648    0.9914459565    0.3366401902         -0.4885
C638       C    0.4747901825    0.9934970371    0.3671986497         -0.4905
C639       C    0.4992166029    1.0079193774    0.2905318679          0.4979
H640       H    0.5489024574    1.0061765656    0.3251200690          0.4991
H641       H    0.5473161738    1.0089514338    0.3790651190          0.4963
H642       H    0.4536398116    0.9891082506    0.3794605105         -0.4869
N643       N    0.4496988956    0.9833433939    0.3207734026         -0.4815
C644       C    0.5113133442    0.9918648726    0.2674870099         -0.4884
C645       C    0.5071202393    1.0011115623    0.2376976602           0.504
H646       H    0.5241361924    0.9710850267    0.2720975482         -0.4708
H647       H    0.4861571384    1.0285406850    0.2858235995          0.4805
C648       C    0.5324826142    1.0025866287    0.2190746349          0.5029
C649       C    0.5291814327    1.0019288943    0.1886887768          0.5037
C650       C    0.5018503092    1.0001757196    0.1752441855          0.5053
C651       C    0.4770461802    0.9990038170    0.1931153814         -0.4938
C652       C    0.4789625415    0.9994554561    0.2236541728          0.5056
C653       C    0.4996910700    0.9996980960    0.1451121974           0.506
H654       H    0.5496365132    1.0029785502    0.1745967205          0.5029
H655       H    0.5551585193    1.0041237997    0.2289489869          0.5015
H656       H    0.4582954935    0.9986150212    0.2373759646         -0.4938
H657       H    0.4544747162    0.9976760718    0.1828231575         -0.4926
C658       C    0.5000000000    1.0000000000    0.1169453326          0.5059
H659       H    0.4524586175    0.9697452959    0.3021329393         -0.4699
H660       H    0.4347265476    0.9999635256    0.3144629489          0.5045
C605       C    0.8830546674    0.5000000000    0.5000000000          0.5039
C606       C    0.8672251597    0.5174110693    0.4802609248          0.5004
C607       C    0.8367283742    0.5168714383    0.4785045199          0.5018
C608       C    0.8202472138    0.4983189764    0.4977394835         -0.4934
C609       C    0.8366401902    0.4792858686    0.5169205507         -0.4885
C610       C    0.8671986497    0.4810934688    0.5178987850         -0.4905
C611       C    0.7905318679    0.5062920371    0.5048724244          0.4979
H612       H    0.8251200690    0.5312217017    0.4618580854          0.4991
H613       H    0.8790651190    0.5327292050    0.4646765289          0.4963
H614       H    0.8794605105    0.4661352508    0.5334824736         -0.4869
N615       N    0.8207734026    0.4591574977    0.5337569791         -0.4815
C616       C    0.7674870099    0.4991214351    0.4860931607         -0.4884
C617       C    0.7376976602    0.5047256991    0.4945593065           0.504
H618       H    0.7720975482    0.4883339668    0.4641875003         -0.4708
H619       H    0.7858235995    0.5168194584    0.5268942622          0.4805
C620       C    0.7190746349    0.5194542562    0.4738591740          0.5029
C621       C    0.6886887768    0.5171426585    0.4763059943          0.5037
C622       C    0.6752441855    0.5011322120    0.4985260198          0.5053
C623       C    0.6931153814    0.4869571447    0.5189143901         -0.4938
C624       C    0.7236541728    0.4883581878    0.5175310980          0.5056
C625       C    0.6451121974    0.4995800784    0.5001012403           0.506
H626       H    0.6745967205    0.5289028334    0.4595366657          0.5029
H627       H    0.7289489869    0.5328076737    0.4554677137          0.5015
H628       H    0.7373759646    0.4766625888    0.5345911733         -0.4938
H629       H    0.6828231575    0.4738366347    0.5373286810         -0.4926
C630       C    0.6169453326    0.5000000000    0.5000000000          0.5059
H631       H    0.8021329393    0.4491054404    0.5241924363         -0.4699
H632       H    0.8144629489    0.4652789674    0.5552727312          0.5045
C577       C    1.1169453326    0.5000000000    0.5000000000          0.5039
C578       C    1.1327748403    0.5106457189    0.4759283342          0.5004
C579       C    1.1632716258    0.5124668006    0.4756837508          0.5018
C580       C    1.1797527862    0.5027564294    0.5005812679         -0.4934
C581       C    1.1633598098    0.4932960739    0.5258928107         -0.4885
C582       C    1.1328013503    0.4916513948    0.5246601747         -0.4905
C583       C    1.2094681321    0.4929423118    0.4963231416          0.4979
H584       H    1.1748799310    0.5215838507    0.4556859199          0.4991
H585       H    1.1209348810    0.5183932416    0.4554956503          0.4963
H586       H    1.1205394895    0.4837539555    0.5447656488         -0.4869
N587       N    1.1792265974    0.4864235235    0.5512183846         -0.4815
C588       C    1.2325129901    0.5129991247    0.4949805566         -0.4884
C589       C    1.2623023398    0.5029649589    0.4934317128           0.504
H590       H    1.2279024518    0.5374086404    0.4956153579         -0.4708
H591       H    1.2141764005    0.4685360537    0.4959731402          0.4805
C592       C    1.2809253651    0.5156057442    0.4713945526          0.5029
C593       C    1.3113112232    0.5143502699    0.4745177238          0.5037
C594       C    1.3247558145    0.5008651971    0.4983550211          0.5053
C595       C    1.3068846186    0.4882760527    0.5197590305         -0.4938
C596       C    1.2763458272    0.4889464215    0.5179078081          0.5056
C597       C    1.3548878026    0.5000837030    0.5004237660           0.506
H598       H    1.3254032795    0.5246624189    0.4568210665          0.5029
H599       H    1.2710510131    0.5267248004    0.4515721875          0.5015
H600       H    1.2626240354    0.4783431736    0.5356674348         -0.4938
H601       H    1.3171768425    0.4770388306    0.5393793957         -0.4926
C602       C    1.3830546674    0.5000000000    0.5000000000          0.5059
H603       H    1.1978670607    0.4993159459    0.5563476907         -0.4699
H604       H    1.1855370511    0.4643200214    0.5546586137          0.5045
C549       C    0.8830546674    0.5000000000    0.0000000000          0.5039
C550       C    0.8672251597    0.5111252140   -0.0238538474          0.5004
C551       C    0.8367283742    0.5101113557   -0.0253862478          0.5018
C552       C    0.8202472138    0.4977488271   -0.0016935158         -0.4934
C553       C    0.8366401902    0.4849100061    0.0220833050         -0.4885
C554       C    0.8671986497    0.4869203356    0.0225110152         -0.4905
C555       C    0.7905318679    0.5074122498    0.0028963430          0.4979
H556       H    0.8251200690    0.5191741687   -0.0454087168          0.4991
H557       H    0.8790651190    0.5214165126   -0.0431309803          0.4963
H558       H    0.8794605105    0.4769740930    0.0416857875         -0.4869
N559       N    0.8207734026    0.4703581448    0.0439204286         -0.4815
C560       C    0.7674870099    0.4952283381   -0.0130921082         -0.4884
C561       C    0.7376976602    0.5029961120   -0.0065541354           0.504
H562       H    0.7720975482    0.4786916473   -0.0310577779         -0.4708
H563       H    0.7858235995    0.5237323090    0.0210469244          0.4805
C564       C    0.7190746349    0.5112765786   -0.0305720403          0.5029
C565       C    0.6886887768    0.5097504113   -0.0275718357          0.5037
C566       C    0.6752441855    0.5006696679   -0.0017338012          0.5053
C567       C    0.6931153814    0.4928320662    0.0218286727         -0.4938
C568       C    0.7236541728    0.4937852345    0.0201059165          0.5056
C569       C    0.6451121974    0.4996257866    0.0002157501           0.506
H570       H    0.6745967205    0.5162939289   -0.0469804543          0.5029
H571       H    0.7289489869    0.5188901587   -0.0519868241          0.5015
H572       H    0.7373759646    0.4873858024    0.0397751939         -0.4938
H573       H    0.6828231575    0.4854483556    0.0431995574         -0.4926
C574       C    0.6169453326    0.5000000000    0.0000000000          0.5059
H575       H    0.8021329393    0.4580134542    0.0375853714         -0.4699
H576       H    0.8144629489    0.4823087612    0.0628302872          0.5045
C521       C    1.1169453326    0.5000000000    0.0000000000          0.5039
C522       C    1.1327748403    0.5008894566    0.0263056133          0.5004
C523       C    1.1632716258    0.4993562474    0.0273182480          0.5018
C524       C    1.1797527862    0.4972652786    0.0006760725         -0.4934
C525       C    1.1633598098    0.4947690465   -0.0262300858         -0.4885
C526       C    1.1328013503    0.4967862224   -0.0258359258         -0.4905
C527       C    1.2094681321    0.5079544274    0.0002394479          0.4979
H528       H    1.1748799310    0.4998493850    0.0492907458          0.4991
H529       H    1.1209348810    0.5028048884    0.0480737046          0.4963
H530       H    1.1205394895    0.4951481514   -0.0473746434         -0.4869
N531       N    1.1792265974    0.4899367422   -0.0520228265         -0.4815
C532       C    1.2325129901    0.4904802018    0.0101757308         -0.4884
C533       C    1.2623023398    0.5001885642    0.0072040143           0.504
H534       H    1.2279024518    0.4682265243    0.0202256695         -0.4708
H535       H    1.2141764005    0.5300812448   -0.0100654969          0.4805
C536       C    1.2809253651    0.4983964454    0.0325459596          0.5029
C537       C    1.3113112232    0.4981678211    0.0291876646          0.5037
C538       C    1.3247558145    0.4999367992    0.0018575595          0.5053
C539       C    1.3068846186    0.5019579300   -0.0228918487 -0.49860000000000004
C540       C    1.2763458272    0.5021598900   -0.0209333720          0.5056
C541       C    1.3548878026    0.4997402405   -0.0003451214           0.506
H542       H    1.3254032795    0.4965836080    0.0496083004          0.5029
H543       H    1.2710510131    0.4970106968    0.0552316218          0.5015
H544       H    1.2626240354    0.5039787977   -0.0415373711         -0.4938
H545       H    1.3171768425    0.5035379686   -0.0454470559         -0.4926
C546       C    1.3830546674    0.5000000000    0.0000000000          0.5059
H547       H    1.1978670607    0.4760969154   -0.0510310956         -0.4699
H548       H    1.1855370511    0.5083409701   -0.0647383436          0.5045
C493       C    1.0000000000    0.5000000000   -0.3830546674          0.5039
C494       C    1.0259739224    0.4957418575   -0.3672251597          0.5004
C495       C    1.0271749539    0.4971324268   -0.3367283742          0.5018
C496       C    1.0010214536    0.5026253395   -0.3202472138         -0.4934
C497       C    0.9746581648    0.5085540435   -0.3366401902         -0.4885
C498       C    0.9747901825    0.5065029629   -0.3671986497         -0.4905
C499       C    0.9992166029    0.4920806226   -0.2905318679          0.4979
H500       H    1.0489024574    0.4938234344   -0.3251200690          0.4991
H501       H    1.0473161738    0.4910485662   -0.3790651190          0.4963
H502       H    0.9536398116    0.5108917494   -0.3794605105         -0.4869
N503       N    0.9496988956    0.5166566061   -0.3207734026         -0.4815
C504       C    1.0113133442    0.5081351274   -0.2674870099         -0.4884
C505       C    1.0071202393    0.4988884377   -0.2376976602           0.504
H506       H    1.0241361924    0.5289149733   -0.2720975482         -0.4708
H507       H    0.9861571384    0.4714593150   -0.2858235995          0.4805
C508       C    1.0324826142    0.4974133713   -0.2190746349          0.5029
C509       C    1.0291814327    0.4980711057   -0.1886887768          0.5037
C510       C    1.0018503092    0.4998242804   -0.1752441855          0.5053
C511       C    0.9770461802    0.5009961830   -0.1931153814         -0.4938
C512       C    0.9789625415    0.5005445439   -0.2236541728          0.5056
C513       C    0.9996910700    0.5003019040   -0.1451121974           0.506
H514       H    1.0496365132    0.4970214498   -0.1745967205          0.5029
H515       H    1.0551585193    0.4958762003   -0.2289489869          0.5015
H516       H    0.9582954935    0.5013849788   -0.2373759646         -0.4938
H517       H    0.9544747162    0.5023239282   -0.1828231575         -0.4926
C518       C    1.0000000000    0.5000000000   -0.1169453326          0.5059
H519       H    0.9524586175    0.5302547041   -0.3021329393         -0.4699
H520       H    0.9347265476    0.5000364744   -0.3144629489          0.5045
C465       C    1.0000000000    0.5000000000    0.3830546674          0.5039
C466       C    1.0072078563    0.4746855134    0.3672251597          0.5004
C467       C    1.0059641484    0.4733329787    0.3367283742          0.5018
C468       C    0.9975090756    0.4986842984    0.3202472138         -0.4934
C469       C    0.9885970337    0.5241940619    0.3366401902         -0.4885
C470       C    0.9906497257    0.5242980616    0.3671986497         -0.4905
C471       C    1.0077773480    0.5016861517    0.2905318679          0.4979
H472       H    1.0117422805    0.4521280964    0.3251200690          0.4991
H473       H    1.0143169926    0.4540220466    0.3790651190          0.4963
H474       H    0.9838650847    0.5448058231    0.3794605105         -0.4869
N475       N    0.9776864309    0.5480598404    0.3207734026         -0.4815
C476       C    0.9932155342    0.4878285959    0.2674870099         -0.4884
C477       C    1.0019205356    0.4930541436    0.2376976602           0.504
H478       H    0.9740427808    0.4727079822    0.2720975482         -0.4708
H479       H    1.0267654816    0.5170236458    0.2858235995          0.4805
C480       C    1.0062935550    0.4680281055    0.2190746349          0.5029
C481       C    1.0052616922    0.4712321144    0.1886887768          0.5037
C482       C    1.0003866904    0.4981820363    0.1752441855          0.5053
C483       C    0.9963788362    0.5226882656    0.1931153814         -0.4938
C484       C    0.9970471994    0.5208363182    0.2236541728          0.5056
C485       C    0.9996646692    0.5002722812    0.1451121974           0.506
H486       H    1.0086495075    0.4510322430    0.1745967205          0.5029
H487       H    1.0104202781    0.4456779439    0.2289489869          0.5015
H488       H    0.9938429246    0.5412707457    0.2373759646         -0.4938
H489       H    0.9924721318    0.5449586845    0.1828231575         -0.4926
C490       C    1.0000000000    0.5000000000    0.1169453326          0.5059
H491       H    0.9644943815    0.5437593559    0.3021329393         -0.4699
H492       H    0.9924804671    0.5648388891    0.3144629489          0.5045
C437       C    1.0000000000   -0.1169453326    0.5000000000          0.5039
C438       C    1.0259739224   -0.1327748403    0.4957418575          0.5004
C439       C    1.0271749539   -0.1632716258    0.4971324268          0.5018
C440       C    1.0010214536   -0.1797527862    0.5026253395         -0.4934
C441       C    0.9746581648   -0.1633598098    0.5085540435         -0.4885
C442       C    0.9747901825   -0.1328013503    0.5065029629         -0.4905
C443       C    0.9992166029   -0.2094681321    0.4920806226          0.4979
H444       H    1.0489024574   -0.1748799310    0.4938234344          0.4991
H445       H    1.0473161738   -0.1209348810    0.4910485662          0.4963
H446       H    0.9536398116   -0.1205394895    0.5108917494         -0.4869
N447       N    0.9496988956   -0.1792265974    0.5166566061         -0.4815
C448       C    1.0113133442   -0.2325129901    0.5081351274         -0.4884
C449       C    1.0071202393   -0.2623023398    0.4988884377           0.504
H450       H    1.0241361924   -0.2279024518    0.5289149733         -0.4708
H451       H    0.9861571384   -0.2141764005    0.4714593150          0.4805
C452       C    1.0324826142   -0.2809253651    0.4974133713          0.5029
C453       C    1.0291814327   -0.3113112232    0.4980711057          0.5037
C454       C    1.0018503092   -0.3247558145    0.4998242804          0.5053
C455       C    0.9770461802   -0.3068846186    0.5009961830         -0.4938
C456       C    0.9789625415   -0.2763458272    0.5005445439          0.5056
C457       C    0.9996910700   -0.3548878026    0.5003019040           0.506
H458       H    1.0496365132   -0.3254032795    0.4970214498          0.5029
H459       H    1.0551585193   -0.2710510131    0.4958762003          0.5015
H460       H    0.9582954935   -0.2626240354    0.5013849788         -0.4938
H461       H    0.9544747162   -0.3171768425    0.5023239282         -0.4926
C462       C    1.0000000000   -0.3830546674    0.5000000000          0.5059
H463       H    0.9524586175   -0.1978670607    0.5302547041         -0.4699
H464       H    0.9347265476   -0.1855370511    0.5000364744          0.5045
C409       C    1.0000000000    0.1169453326    0.5000000000          0.5039
C410       C    0.9947971797    0.1327748403    0.5258013001          0.5004
C411       C    0.9961430107    0.1632716258    0.5270522592          0.5018
C412       C    1.0025863302    0.1797527862    0.5011165444         -0.4934
C413       C    1.0094728038    0.1633598098    0.4749870781         -0.4885
C414       C    1.0074182724    0.1328013503    0.4750441858         -0.4905
C415       C    0.9921144715    0.2094681321    0.4989282305          0.4979
H416       H    0.9920436154    0.1748799310    0.5486445912          0.4991
H417       H    0.9893284607    0.1209348810    0.5469581380          0.4963
H418       H    1.0125756897    0.1205394895    0.4540679926         -0.4869
N419       N    1.0184804714    0.1792265974    0.4503399979         -0.4815
C420       C    1.0077170092    0.2325129901    0.5116025783         -0.4884
C421       C    0.9986294358    0.2623023398    0.5070749510           0.504
H422       H    1.0280152549    0.2279024518    0.5251749271         -0.4708
H423       H    0.9719832901    0.2141764005    0.4851252064          0.4805
C424       C    0.9962301481    0.2809253651    0.5323666354          0.5029
C425       C    0.9970078697    0.3113112232    0.5290916449          0.5037
C426       C    0.9997568993    0.3247558145    0.5018426675          0.5053
C427       C    1.0018328605    0.3068846186    0.4770977982         -0.4938
C428       C    1.0013116144    0.2763458272    0.4789964085          0.5056
C429       C    1.0003129726    0.3548878026    0.4997022889           0.506
H430       H    0.9952127243    0.3254032795    0.5494948199          0.5029
H431       H    0.9938667978    0.2710510131    0.5549713726          0.5015
H432       H    1.0029054105    0.2626240354    0.4583737748         -0.4938
H433       H    1.0039831144    0.3171768425    0.4545897929         -0.4926
C434       C    1.0000000000    0.3830546674    0.5000000000          0.5059
H435       H    1.0319688458    0.1978670607    0.4535939328         -0.4699
H436       H    1.0024175836    0.1855370511    0.4347713237          0.5045
C381       C    0.6169453326   -0.0000000000    0.5000000000          0.5039
C382       C    0.6327748403    0.0261242862    0.5032090647          0.5004
C383       C    0.6632716258    0.0268863696    0.5048810062          0.5018
C384       C    0.6797527862    0.0002429026    0.5028065590         -0.4934
C385       C    0.6633598098   -0.0267243157    0.5010914311         -0.4885
C386       C    0.6328013503   -0.0260214880    0.4991600084         -0.4905
C387       C    0.7094681321    0.0014726042    0.4921794062          0.4979
H388       H    0.6748799310    0.0486685907    0.5078082384          0.4991
H389       H    0.6209348810    0.0479255988    0.5046995164          0.4963
H390       H    0.6205394895   -0.0475531133    0.4974312082         -0.4869
N391       N    0.6792265974   -0.0529546516    0.5018570161         -0.4815
C392       C    0.7325129901    0.0085728098    0.5109853988         -0.4884
C393       C    0.7623023398    0.0071458064    0.5009331821           0.504
H394       H    0.7279024518    0.0150425956    0.5345304472         -0.4708
H395       H    0.7141764005   -0.0052688034    0.4687200507          0.4805
C396       C    0.7809253651    0.0319014316    0.5066415007          0.5029
C397       C    0.8113112232    0.0285484043    0.5063454911          0.5037
C398       C    0.8247558145    0.0018251741    0.5003510854          0.5053
C399       C    0.8068846186   -0.0223095248    0.4945086131         -0.4938
C400       C    0.7763458272   -0.0203434551    0.4946134406          0.5056
C401       C    0.8548878026   -0.0003812940    0.5002029746           0.506
H402       H    0.8254032795    0.0484748080    0.5110836908          0.5029
H403       H    0.7710510131    0.0540961877    0.5115356166          0.5015
H404       H    0.7626240354   -0.0404145247    0.4896149038         -0.4938
H405       H    0.8171768425   -0.0443452192    0.4894428390         -0.4926
C406       C    0.8830546674   -0.0000000000    0.5000000000          0.5059
H407       H    0.6978670607   -0.0541255843    0.5156828344         -0.4699
H408       H    0.6855370511   -0.0626558151    0.4817004437          0.5045
C353       C    1.1169453326   -0.0000000000    0.5000000000          0.5039
C354       C    1.1327748403   -0.0166652136    0.5203727042          0.5004
C355       C    1.1632716258   -0.0184857469    0.5201240715          0.5018
C356       C    1.1797527862   -0.0025025085    0.4987064676         -0.4934
C357       C    1.1633598098    0.0133498514    0.4768232500         -0.4885
C358       C    1.1328013503    0.0146073993    0.4784489603         -0.4905
C359       C    1.2094681321    0.0058253861    0.5054217273          0.4979
H360       H    1.1748799310   -0.0325937311    0.5369763303          0.4991
H361       H    1.1209348810   -0.0295686798    0.5380084418          0.4963
H362       H    1.1205394895    0.0275683438    0.4611685219         -0.4869
N363       N    1.1792265974    0.0267113680    0.4542381551         -0.4815
C364       C    1.2325129901   -0.0138659751    0.5013808650         -0.4884
C365       C    1.2623023398   -0.0046052952    0.5055429806           0.504
H366       H    1.2279024518   -0.0372272452    0.4942760431         -0.4708
H367       H    1.2141764005    0.0292592722    0.5122511431          0.4805
C368       C    1.2809253651   -0.0226525249    0.5234237911          0.5029
C369       C    1.3113112232   -0.0206115225    0.5207470910          0.5037
C370       C    1.3247558145   -0.0012715887    0.5013555750          0.5053
C371       C    1.3068846186    0.0165574434    0.4840713688         -0.4938
C372       C    1.2763458272    0.0154188036    0.4856775811          0.5056
C373       C    1.3548878026    0.0000320336    0.4995692360           0.506
H374       H    1.3254032795   -0.0352594421    0.5350631851          0.5029
H375       H    1.2710510131   -0.0386437162    0.5395743752          0.5015
H376       H    1.2626240354    0.0303640845    0.4713782180         -0.4938
H377       H    1.3171768425    0.0326088120    0.4681469391         -0.4926
C378       C    1.3830546674   -0.0000000000    0.5000000000          0.5059
H379       H    1.1978670607    0.0156478015    0.4458642772         -0.4699
H380       H    1.1855370511    0.0489336533    0.4568013600          0.5045
C325       C   -0.0000000000   -0.1169453326   -0.0000000000          0.5039
C326       C   -0.0233346525   -0.1327748403   -0.0121766341          0.5004
C327       C   -0.0234612307   -0.1632716258   -0.0140097019          0.5018
C328       C    0.0007579007   -0.1797527862   -0.0027131829         -0.4934
C329       C    0.0254063262   -0.1633598098    0.0083605540         -0.4885
C330       C    0.0240701443   -0.1328013503    0.0099222769         -0.4905
C331       C   -0.0041245572   -0.2094681321    0.0068057533          0.4979
H332       H   -0.0428291656   -0.1748799310   -0.0243980097          0.4991
H333       H   -0.0432248959   -0.1209348810   -0.0212263245          0.4963
H334       H    0.0436241870   -0.1205394895    0.0191004602         -0.4869
N335       N    0.0502357178   -0.1792265974    0.0168527829         -0.4815
C336       C   -0.0041702857   -0.2325129901   -0.0132958930         -0.4884
C337       C   -0.0063633035   -0.2623023398   -0.0033825650           0.504
H338       H   -0.0019619129   -0.2279024518   -0.0376135928         -0.4708
H339       H   -0.0060485133   -0.2141764005    0.0311385774          0.4805
C340       C   -0.0275389684   -0.2809253651   -0.0174188430          0.5029
C341       C   -0.0245033074   -0.3113112232   -0.0159644785          0.5037
C342       C   -0.0015857292   -0.3247558145   -0.0009695279          0.5053
C343       C    0.0189614359   -0.3068846186    0.0129743660         -0.4938
C344       C    0.0171573226   -0.2763458272    0.0121859537          0.5056
C345       C    0.0004282835   -0.3548878026   -0.0000561873           0.506
H346       H   -0.0414977560   -0.3254032795   -0.0273969242          0.5029
H347       H   -0.0466026343   -0.2710510131   -0.0297936646          0.5015
H348       H    0.0341958278   -0.2626240354    0.0239129545         -0.4938
H349       H    0.0378158989   -0.3171768425    0.0254540744         -0.4926
C350       C   -0.0000000000   -0.3830546674    0.0000000000          0.5059
H351       H    0.0561861516   -0.1978670607    0.0043181639         -0.4699
H352       H    0.0522426680   -0.1855370511    0.0391321934          0.5045
C297       C   -0.0000000000    0.1169453326    0.0000000000          0.5039
C298       C   -0.0160199005    0.1327748403    0.0208839462          0.5004
C299       C   -0.0153613756    0.1632716258    0.0225993193          0.5018
C300       C    0.0018317304    0.1797527862    0.0021402193         -0.4934
C301       C    0.0195080434    0.1633598098   -0.0182979921         -0.4885
C302       C    0.0176377557    0.1328013503   -0.0191502741         -0.4905
C303       C   -0.0066106255    0.2094681321   -0.0044305621          0.4979
H304       H   -0.0285392131    0.1748799310    0.0401884762          0.4991
H305       H   -0.0302359983    0.1209348810    0.0374797663          0.4963
H306       H    0.0314948273    0.1205394895   -0.0357207660         -0.4869
N307       N    0.0384374536    0.1792265974   -0.0364719864         -0.4815
C308       C    0.0018278931    0.2325129901    0.0138141544         -0.4884
C309       C   -0.0043424222    0.2623023398    0.0057512388           0.504
H310       H    0.0140886857    0.2279024518    0.0349305082         -0.4708
H311       H   -0.0186199282    0.2141764005   -0.0256806112          0.4805
C312       C   -0.0176203478    0.2809253651    0.0274104764          0.5029
C313       C   -0.0154815562    0.3113112232    0.0248112487          0.5037
C314       C   -0.0010287224    0.3247558145    0.0015479831          0.5053
C315       C    0.0117183382    0.3068846186   -0.0197623575         -0.4938
C316       C    0.0104152105    0.2763458272   -0.0182864589          0.5056
C317       C    0.0004120118    0.3548878026   -0.0001297305           0.506
H318       H   -0.0260669658    0.3254032795    0.0423458203          0.5029
H319       H   -0.0296842951    0.2710510131    0.0466723752          0.5015
H320       H    0.0209163051    0.2626240354   -0.0361066782         -0.4938
H321       H    0.0235483618    0.3171768425   -0.0390311000         -0.4926
C322       C   -0.0000000000    0.3830546674    0.0000000000          0.5059
H323       H    0.0491202848    0.1978670607   -0.0276175269         -0.4699
H324       H    0.0308584023    0.1855370511   -0.0575185529          0.5045
C269       C   -0.3830546674   -0.0000000000    0.0000000000          0.5039
C270       C   -0.3672251597   -0.0112520777    0.0237942676          0.5004
C271       C   -0.3367283742   -0.0130787707    0.0239926416          0.5018
C272       C   -0.3202472138   -0.0027408204   -0.0006509062         -0.4934
C273       C   -0.3366401902    0.0073576824   -0.0257146803         -0.4885
C274       C   -0.3671986497    0.0089706090   -0.0244407774         -0.4905
C275       C   -0.2905318679    0.0069622825    0.0038544614          0.4979
H276       H   -0.3251200690   -0.0226994732    0.0437531053          0.4991
H277       H   -0.3790651190   -0.0195147078    0.0440241372          0.4963
H278       H   -0.3794605105    0.0173748188   -0.0443397445         -0.4869
N279       N   -0.3207734026    0.0148695659   -0.0508580342         -0.4815
C280       C   -0.2674870099   -0.0131221041    0.0046885435         -0.4884
C281       C   -0.2376976602   -0.0031303930    0.0064910721           0.504
H282       H   -0.2720975482   -0.0375077063    0.0034356126         -0.4708
H283       H   -0.2858235995    0.0313518426    0.0048226012          0.4805
C284       C   -0.2190746349   -0.0163253595    0.0282009487          0.5029
C285       C   -0.1886887768   -0.0149911730    0.0251105830          0.5037
C286       C   -0.1752441855   -0.0009065895    0.0016225341          0.5053
C287       C   -0.1931153814    0.0122207139   -0.0194557029         -0.4938
C288       C   -0.2236541728    0.0115036657   -0.0176220561          0.5056
C289       C   -0.1451121974   -0.0000729414   -0.0004257503           0.506
H290       H   -0.1745967205   -0.0257482984    0.0425403378          0.5029
H291       H   -0.2289489869   -0.0279429808    0.0477352888          0.5015
H292       H   -0.2373759646    0.0225533917   -0.0351073860         -0.4938
H293       H   -0.1828231575    0.0239513463   -0.0387851147         -0.4926
C294       C   -0.1169453326   -0.0000000000    0.0000000000          0.5059
H295       H   -0.3021329393    0.0021112145   -0.0563122806         -0.4699
H296       H   -0.3144629489    0.0370531218   -0.0537372412          0.5045
C241       C    0.1169453326   -0.0000000000    0.0000000000          0.5039
C242       C    0.1327748403   -0.0248977572    0.0085368676          0.5004
C243       C    0.1632716258   -0.0263141888    0.0073664483          0.5018
C244       C    0.1797527862   -0.0014456261   -0.0024178379         -0.4934
C245       C    0.1633598098    0.0235569855   -0.0126668350         -0.4885
C246       C    0.1328013503    0.0237694243   -0.0106225184         -0.4905
C247       C    0.2094681321    0.0020952024    0.0076772636          0.4979
H248       H    0.1748799310   -0.0471837261    0.0142582009          0.4991
H249       H    0.1209348810   -0.0451562288    0.0167291205          0.4963
H250       H    0.1205394895    0.0438895739   -0.0184824938         -0.4869
N251       N    0.1792265974    0.0468121926   -0.0248246300         -0.4815
C252       C    0.2325129901   -0.0125132521   -0.0061311154         -0.4884
C253       C    0.2623023398   -0.0068345376    0.0022852733           0.504
H254       H    0.2279024518   -0.0286269086   -0.0244771642         -0.4708
H255       H    0.2141764005    0.0184156695    0.0258274783          0.4805
C256       C    0.2809253651   -0.0315942093    0.0079760146          0.5029
C257       C    0.3113112232   -0.0284492706    0.0067761086          0.5037
C258       C    0.3247558145   -0.0017949630    0.0004823169          0.5053
C259       C    0.3068846186    0.0224649446   -0.0048162733         -0.4938
C260       C    0.2763458272    0.0206509457   -0.0040508803          0.5056
C261       C    0.3548878026    0.0002541614   -0.0003492646           0.506
H262       H    0.3254032795   -0.0484416489    0.0112277272          0.5029
H263       H    0.2710510131   -0.0536947799    0.0132792540          0.5015
H264       H    0.2626240354    0.0408872607   -0.0083316231         -0.4938
H265       H    0.3171768425    0.0444975228   -0.0098955838         -0.4926
C266       C    0.3830546674   -0.0000000000    0.0000000000          0.5059
H267       H    0.1978670607    0.0418198871   -0.0377707191         -0.4699
H268       H    0.1855370511    0.0643503338   -0.0109388969          0.5045
C213       C   -0.0000000000    0.0000000000   -0.3830546674          0.5039
C214       C    0.0255752970    0.0062193735   -0.3672251597          0.5004
C215       C    0.0261381842    0.0079684640   -0.3367283742          0.5018
C216       C   -0.0000844693    0.0028157841   -0.3202472138         -0.4934
C217       C   -0.0266703889   -0.0020175795   -0.3366401902         -0.4885
C218       C   -0.0257481492   -0.0038543795   -0.3671986497         -0.4905
C219       C    0.0023703138   -0.0075968324   -0.2905318679          0.4979
H220       H    0.0474334687    0.0134039678   -0.3251200690          0.4991
H221       H    0.0470562974    0.0102300222   -0.3790651190          0.4963
H222       H   -0.0469336218   -0.0080704659   -0.3794605105         -0.4869
N223       N   -0.0528123184   -0.0043014716   -0.3207734026         -0.4815
C224       C    0.0072399063    0.0119061249   -0.2674870099         -0.4884
C225       C    0.0069892107    0.0017562210   -0.2376976602           0.504
H226       H    0.0109333225    0.0360429455   -0.2720975482         -0.4708
H227       H   -0.0016028341   -0.0316800638   -0.2858235995          0.4805
C228       C    0.0309150315    0.0102991115   -0.2190746349          0.5029
C229       C    0.0276190184    0.0096159486   -0.1886887768          0.5037
C230       C    0.0017720928    0.0005605433   -0.1752441855          0.5053
C231       C   -0.0215214279   -0.0080435294   -0.1931153814         -0.4938
C232       C   -0.0195808110   -0.0077112275   -0.2236541728          0.5056
C233       C   -0.0004022746    0.0001573498   -0.1451121974           0.506
H234       H    0.0468608452    0.0166347947   -0.1745967205          0.5029
H235       H    0.0523917859    0.0177360861   -0.2289489869          0.5015
H236       H   -0.0389361113   -0.0150054414   -0.2373759646         -0.4938
H237       H   -0.0428202728   -0.0156325414   -0.1828231575         -0.4926
C238       C   -0.0000000000    0.0000000000   -0.1169453326          0.5059
H239       H   -0.0555799682    0.0092950151   -0.3021329393         -0.4699
H240       H   -0.0601085430   -0.0254477499   -0.3144629489          0.5045
C185       C   -0.0000000000    0.0000000000    0.3830546674          0.5039
C186       C    0.0215808150   -0.0150680074    0.3672251597          0.5004
C187       C    0.0214713199   -0.0169021749    0.3367283742          0.5018
C188       C   -0.0010995187   -0.0025936140    0.3202472138         -0.4934
C189       C   -0.0241246723    0.0115490459    0.3366401902         -0.4885
C190       C   -0.0225992810    0.0129265589    0.3671986497         -0.4905
C191       C    0.0049631207    0.0062207461    0.2905318679          0.4979
H192       H    0.0393474496   -0.0296880197    0.3251200690          0.4991
H193       H    0.0401465744   -0.0265932517    0.3790651190          0.4963
H194       H   -0.0408151398    0.0245361292    0.3794605105         -0.4869
N195       N   -0.0476602889    0.0231547077    0.3207734026         -0.4815
C196       C    0.0024311190   -0.0137208497    0.2674870099         -0.4884
C197       C    0.0058770835   -0.0041705236    0.2376976602           0.504
H198       H   -0.0028769449   -0.0375546888    0.2720975482         -0.4708
H199       H    0.0099910546    0.0301060516    0.2858235995          0.4805
C200       C    0.0250782945   -0.0208060091    0.2190746349          0.5029
C201       C    0.0222541619   -0.0189744282    0.1886887768          0.5037
C202       C    0.0014483320   -0.0011648416    0.1752441855          0.5053
C203       C   -0.0171414118    0.0152984387    0.1931153814         -0.4938
C204       C   -0.0154532763    0.0142852175    0.2236541728          0.5056
C205       C   -0.0004319527   -0.0000008108    0.1451121974           0.506
H206       H    0.0376425202   -0.0324914739    0.1745967205          0.5029
H207       H    0.0423979638   -0.0355229594    0.2289489869          0.5015
H208       H   -0.0308475609    0.0281000359    0.2373759646         -0.4938
H209       H   -0.0342401566    0.0300925869    0.1828231575         -0.4926
C210       C   -0.0000000000   -0.0000000000    0.1169453326          0.5059
H211       H   -0.0551687483    0.0114864870    0.3021329393         -0.4699
H212       H   -0.0467940973    0.0455075530    0.3144629489          0.5045
loop_
_geom_bond_atom_site_label_1
_geom_bond_atom_site_label_2
_geom_bond_distance
_geom_bond_site_symmetry_2
_ccdc_geom_bond_type
Zn1          O5 1.942       .   S
Zn1          O6 1.922       .   S
Zn1         O10 1.922       .   S
Zn1         O17 1.922       .   S
Zn2          O5 1.942       .   S
Zn2          O7 1.922       .   S
Zn2          O9 1.922       .   S
Zn2         O13 1.922       .   S
Zn3          O5 1.942       .   S
Zn3          O8 1.922       .   S
Zn3         O11 1.922       .   S
Zn3         O14 1.922       .   S
Zn4          O5 1.942       .   S
Zn4         O12 1.922       .   S
Zn4         O15 1.922       .   S
Zn4         O16 1.922       .   S
O6          C18 1.304       .   A
O7          C19 1.304       .   A
O8          C20 1.304       .   A
O9          C18 1.304       .   A
O10         C20 1.304       .   A
O11         C19 1.304       .   A
O12         C21 1.304       .   A
O13         C22 1.304       .   A
O14         C21 1.304       .   A
O15         C22 1.304       .   A
O16         C23 1.304       .   A
O17         C23 1.304       .   A
C18        C325 1.540       .   S
C19        C294 1.540       .   S
C20        C210 1.540       .   S
C21        C297 1.540       .   S
C22        C238 1.540       .   S
C23        C241 1.540       .   S
Zn24        O28 1.942       .   S
Zn24        O29 1.922       .   S
Zn24        O33 1.922       .   S
Zn24        O40 1.922       .   S
Zn25        O28 1.942       .   S
Zn25        O30 1.922       .   S
Zn25        O32 1.922       .   S
Zn25        O36 1.922       .   S
Zn26        O28 1.942       .   S
Zn26        O31 1.922       .   S
Zn26        O34 1.922       .   S
Zn26        O37 1.922       .   S
Zn27        O28 1.942       .   S
Zn27        O35 1.922       .   S
Zn27        O38 1.922       .   S
Zn27        O39 1.922       .   S
O29         C41 1.304       .   A
O30         C42 1.304       .   A
O31         C43 1.304       .   A
O32         C41 1.304       .   A
O33         C43 1.304       .   A
O34         C42 1.304       .   A
O35         C44 1.304       .   A
O36         C45 1.304       .   A
O37         C44 1.304       .   A
O38         C45 1.304       .   A
O39         C46 1.304       .   A
O40         C46 1.304       .   A
C41        C185 1.540   1_655   S
C42        C353 1.540       .   S
C43        C409 1.540       .   S
C44        C213 1.540   1_656   S
C45        C437 1.540       .   S
C46        C406 1.540       .   S
Zn47        O51 1.942       .   S
Zn47        O52 1.922       .   S
Zn47        O56 1.922       .   S
Zn47        O63 1.922       .   S
Zn48        O51 1.942       .   S
Zn48        O53 1.922       .   S
Zn48        O55 1.922       .   S
Zn48        O59 1.922       .   S
Zn49        O51 1.942       .   S
Zn49        O54 1.922       .   S
Zn49        O57 1.922       .   S
Zn49        O60 1.922       .   S
Zn50        O51 1.942       .   S
Zn50        O58 1.922       .   S
Zn50        O61 1.922       .   S
Zn50        O62 1.922       .   S
O52         C64 1.304       .   A
O53         C65 1.304       .   A
O54         C66 1.304       .   A
O55         C64 1.304       .   A
O56         C66 1.304       .   A
O57         C65 1.304       .   A
O58         C67 1.304       .   A
O59         C68 1.304       .   A
O60         C67 1.304       .   A
O61         C68 1.304       .   A
O62         C69 1.304       .   A
O63         C69 1.304       .   A
C64        C322 1.540   1_655   S
C65        C490 1.540       .   S
C66        C521 1.540       .   S
C67        C350 1.540   1_665   S
C68        C549 1.540       .   S
C69        C518 1.540       .   S
Zn70        O74 1.942       .   S
Zn70        O75 1.922       .   S
Zn70        O79 1.922       .   S
Zn70        O86 1.922       .   S
Zn71        O74 1.942       .   S
Zn71        O76 1.922       .   S
Zn71        O78 1.922       .   S
Zn71        O82 1.922       .   S
Zn72        O74 1.942       .   S
Zn72        O77 1.922       .   S
Zn72        O80 1.922       .   S
Zn72        O83 1.922       .   S
Zn73        O74 1.942       .   S
Zn73        O81 1.922       .   S
Zn73        O84 1.922       .   S
Zn73        O85 1.922       .   S
O75         C87 1.304       .   A
O76         C88 1.304       .   A
O77         C89 1.304       .   A
O78         C87 1.304       .   A
O79         C89 1.304       .   A
O80         C88 1.304       .   A
O81         C90 1.304       .   A
O82         C91 1.304       .   A
O83         C90 1.304       .   A
O84         C91 1.304       .   A
O85         C92 1.304       .   A
O86         C92 1.304       .   A
C87        C434 1.540       .   S
C88        C465 1.540       .   S
C89        C605 1.540       .   S
C90        C462 1.540   1_565   S
C91        C577 1.540       .   S
C92        C493 1.540   1_556   S
Zn93        O97 1.942       .   S
Zn93        O98 1.922       .   S
Zn93       O102 1.922       .   S
Zn93       O109 1.922       .   S
Zn94        O97 1.942       .   S
Zn94        O99 1.922       .   S
Zn94       O101 1.922       .   S
Zn94       O105 1.922       .   S
Zn95        O97 1.942       .   S
Zn95       O100 1.922       .   S
Zn95       O103 1.922       .   S
Zn95       O106 1.922       .   S
Zn96        O97 1.942       .   S
Zn96       O104 1.922       .   S
Zn96       O107 1.922       .   S
Zn96       O108 1.922       .   S
O98        C110 1.304       .   A
O99        C111 1.304       .   A
O100       C112 1.304       .   A
O101       C110 1.304       .   A
O102       C112 1.304       .   A
O103       C111 1.304       .   A
O104       C113 1.304       .   A
O105       C114 1.304       .   A
O106       C113 1.304       .   A
O107       C114 1.304       .   A
O108       C115 1.304       .   A
O109       C115 1.304       .   A
C110       C266 1.540   1_565   S
C111       C658 1.540       .   S
C112       C717 1.540       .   S
C113       C269 1.540   1_665   S
C114       C714 1.540       .   S
C115       C661 1.540       .   S
Zn116      O120 1.942       .   S
Zn116      O121 1.922       .   S
Zn116      O125 1.922       .   S
Zn116      O132 1.922       .   S
Zn117      O120 1.942       .   S
Zn117      O122 1.922       .   S
Zn117      O124 1.922       .   S
Zn117      O128 1.922       .   S
Zn118      O120 1.942       .   S
Zn118      O123 1.922       .   S
Zn118      O126 1.922       .   S
Zn118      O129 1.922       .   S
Zn119      O120 1.942       .   S
Zn119      O127 1.922       .   S
Zn119      O130 1.922       .   S
Zn119      O131 1.922       .   S
O121       C133 1.304       .   A
O122       C134 1.304       .   A
O123       C135 1.304       .   A
O124       C133 1.304       .   A
O125       C135 1.304       .   A
O126       C134 1.304       .   A
O127       C136 1.304       .   A
O128       C137 1.304       .   A
O129       C136 1.304       .   A
O130       C137 1.304       .   A
O131       C138 1.304       .   A
O132       C138 1.304       .   A
C133       C378 1.540   1_465   S
C134       C633 1.540       .   S
C135       C745 1.540       .   S
C136       C381 1.540   1_565   S
C137       C798 1.540       .   S
C138       C686 1.540   1_556   S
Zn139      O143 1.942       .   S
Zn139      O144 1.922       .   S
Zn139      O148 1.922       .   S
Zn139      O155 1.922       .   S
Zn140      O143 1.942       .   S
Zn140      O145 1.922       .   S
Zn140      O147 1.922       .   S
Zn140      O151 1.922       .   S
Zn141      O143 1.942       .   S
Zn141      O146 1.922       .   S
Zn141      O149 1.922       .   S
Zn141      O152 1.922       .   S
Zn142      O143 1.942       .   S
Zn142      O150 1.922       .   S
Zn142      O153 1.922       .   S
Zn142      O154 1.922       .   S
O144       C156 1.304       .   A
O145       C157 1.304       .   A
O146       C158 1.304       .   A
O147       C156 1.304       .   A
O148       C158 1.304       .   A
O149       C157 1.304       .   A
O150       C159 1.304       .   A
O151       C160 1.304       .   A
O152       C159 1.304       .   A
O153       C160 1.304       .   A
O154       C161 1.304       .   A
O155       C161 1.304       .   A
C156       C546 1.540   1_455   S
C157       C689 1.540   1_545   S
C158       C854 1.540       .   S
C159       C574 1.540       .   S
C160       C826 1.540       .   S
C161       C742 1.540       .   S
Zn162      O166 1.942       .   S
Zn162      O167 1.922       .   S
Zn162      O171 1.922       .   S
Zn162      O178 1.922       .   S
Zn163      O166 1.942       .   S
Zn163      O168 1.922       .   S
Zn163      O170 1.922       .   S
Zn163      O174 1.922       .   S
Zn164      O166 1.942       .   S
Zn164      O169 1.922       .   S
Zn164      O172 1.922       .   S
Zn164      O175 1.922       .   S
Zn165      O166 1.942       .   S
Zn165      O173 1.922       .   S
Zn165      O176 1.922       .   S
Zn165      O177 1.922       .   S
O167       C179 1.304       .   A
O168       C180 1.304       .   A
O169       C181 1.304       .   A
O170       C179 1.304       .   A
O171       C181 1.304       .   A
O172       C180 1.304       .   A
O173       C182 1.304       .   A
O174       C183 1.304       .   A
O175       C182 1.304       .   A
O176       C183 1.304       .   A
O177       C184 1.304       .   A
O178       C184 1.304       .   A
C179       C602 1.540   1_455   S
C180       C773 1.540       .   S
C181       C829 1.540   1_556   S
C182       C630 1.540       .   S
C183       C801 1.540       .   S
C184       C770 1.540   1_545   S
C829       C830 0.026       .   A
C829       C834 0.026       .   A
C830       C831 0.026       .   A
C830       H837 0.021       .   A
C831       C832 0.027       .   A
C831       H836 0.021       .   A
C832       C833 0.027       .   A
C832       C835 0.027       .   A
C833       C834 0.026       .   A
C833       N839 0.026       .   A
C834       H838 0.021       .   A
C835       C840 0.026       .   A
C835       H843 0.021       .   A
N839       H855 0.020       .   A
N839       H856 0.020       .   A
C840       C841 0.027       .   A
C840       H842 0.021       .   A
C841       C844 0.027       .   A
C841       C848 0.027       .   A
C844       C845 0.026       .   A
C844       H851 0.021       .   A
C845       C846 0.026       .   A
C845       H850 0.021       .   A
C846       C847 0.026       .   A
C846       C849 0.026       .   A
C847       C848 0.026       .   A
C847       H853 0.021       .   A
C848       H852 0.021       .   A
C849       C854 0.024       .   A
C801       C802 0.026       .   A
C801       C806 0.026       .   A
C802       C803 0.026       .   A
C802       H809 0.021       .   A
C803       C804 0.027       .   A
C803       H808 0.021       .   A
C804       C805 0.027       .   A
C804       C807 0.027       .   A
C805       C806 0.026       .   A
C805       N811 0.026       .   A
C806       H810 0.021       .   A
C807       C812 0.026       .   A
C807       H815 0.021       .   A
N811       H827 0.020       .   A
N811       H828 0.020       .   A
C812       C813 0.027       .   A
C812       H814 0.021       .   A
C813       C816 0.027       .   A
C813       C820 0.027       .   A
C816       C817 0.026       .   A
C816       H823 0.021       .   A
C817       C818 0.026       .   A
C817       H822 0.021       .   A
C818       C819 0.026       .   A
C818       C821 0.026       .   A
C819       C820 0.026       .   A
C819       H825 0.021       .   A
C820       H824 0.021       .   A
C821       C826 0.024       .   A
C773       C774 0.026       .   A
C773       C778 0.026       .   A
C774       C775 0.026       .   A
C774       H781 0.021       .   A
C775       C776 0.027       .   A
C775       H780 0.021       .   A
C776       C777 0.027       .   A
C776       C779 0.027       .   A
C777       C778 0.026       .   A
C777       N783 0.026       .   A
C778       H782 0.021       .   A
C779       C784 0.026       .   A
C779       H787 0.021       .   A
N783       H799 0.020       .   A
N783       H800 0.020       .   A
C784       C785 0.027       .   A
C784       H786 0.021       .   A
C785       C788 0.027       .   A
C785       C792 0.027       .   A
C788       C789 0.026       .   A
C788       H795 0.021       .   A
C789       C790 0.026       .   A
C789       H794 0.021       .   A
C790       C791 0.026       .   A
C790       C793 0.026       .   A
C791       C792 0.026       .   A
C791       H797 0.021       .   A
C792       H796 0.021       .   A
C793       C798 0.024       .   A
C745       C746 0.026       .   A
C745       C750 0.026       .   A
C746       C747 0.026       .   A
C746       H753 0.021       .   A
C747       C748 0.027       .   A
C747       H752 0.021       .   A
C748       C749 0.027       .   A
C748       C751 0.027       .   A
C749       C750 0.026       .   A
C749       N755 0.026       .   A
C750       H754 0.021       .   A
C751       C756 0.026       .   A
C751       H759 0.021       .   A
N755       H771 0.020       .   A
N755       H772 0.020       .   A
C756       C757 0.027       .   A
C756       H758 0.021       .   A
C757       C760 0.027       .   A
C757       C764 0.027       .   A
C760       C761 0.026       .   A
C760       H767 0.021       .   A
C761       C762 0.026       .   A
C761       H766 0.021       .   A
C762       C763 0.026       .   A
C762       C765 0.026       .   A
C763       C764 0.026       .   A
C763       H769 0.021       .   A
C764       H768 0.021       .   A
C765       C770 0.024       .   A
C717       C718 0.026       .   A
C717       C722 0.026       .   A
C718       C719 0.026       .   A
C718       H725 0.021       .   A
C719       C720 0.027       .   A
C719       H724 0.021       .   A
C720       C721 0.027       .   A
C720       C723 0.027       .   A
C721       C722 0.026       .   A
C721       N727 0.026       .   A
C722       H726 0.021       .   A
C723       C728 0.026       .   A
C723       H731 0.021       .   A
N727       H743 0.020       .   A
N727       H744 0.020       .   A
C728       C729 0.027       .   A
C728       H730 0.021       .   A
C729       C732 0.027       .   A
C729       C736 0.027       .   A
C732       C733 0.026       .   A
C732       H739 0.021       .   A
C733       C734 0.026       .   A
C733       H738 0.021       .   A
C734       C735 0.026       .   A
C734       C737 0.026       .   A
C735       C736 0.026       .   A
C735       H741 0.021       .   A
C736       H740 0.021       .   A
C737       C742 0.024       .   A
C689       C690 0.026       .   A
C689       C694 0.026       .   A
C690       C691 0.026       .   A
C690       H697 0.021       .   A
C691       C692 0.027       .   A
C691       H696 0.021       .   A
C692       C693 0.027       .   A
C692       C695 0.027       .   A
C693       C694 0.026       .   A
C693       N699 0.026       .   A
C694       H698 0.021       .   A
C695       C700 0.026       .   A
C695       H703 0.021       .   A
N699       H715 0.020       .   A
N699       H716 0.020       .   A
C700       C701 0.027       .   A
C700       H702 0.021       .   A
C701       C704 0.027       .   A
C701       C708 0.027       .   A
C704       C705 0.026       .   A
C704       H711 0.021       .   A
C705       C706 0.026       .   A
C705       H710 0.021       .   A
C706       C707 0.026       .   A
C706       C709 0.026       .   A
C707       C708 0.026       .   A
C707       H713 0.021       .   A
C708       H712 0.021       .   A
C709       C714 0.024       .   A
C661       C662 0.026       .   A
C661       C666 0.026       .   A
C662       C663 0.026       .   A
C662       H669 0.021       .   A
C663       C664 0.027       .   A
C663       H668 0.021       .   A
C664       C665 0.027       .   A
C664       C667 0.027       .   A
C665       C666 0.026       .   A
C665       N671 0.026       .   A
C666       H670 0.021       .   A
C667       C672 0.026       .   A
C667       H675 0.021       .   A
N671       H687 0.020       .   A
N671       H688 0.020       .   A
C672       C673 0.027       .   A
C672       H674 0.021       .   A
C673       C676 0.027       .   A
C673       C680 0.027       .   A
C676       C677 0.026       .   A
C676       H683 0.021       .   A
C677       C678 0.026       .   A
C677       H682 0.021       .   A
C678       C679 0.026       .   A
C678       C681 0.026       .   A
C679       C680 0.026       .   A
C679       H685 0.021       .   A
C680       H684 0.021       .   A
C681       C686 0.024       .   A
C633       C634 0.026       .   A
C633       C638 0.026       .   A
C634       C635 0.026       .   A
C634       H641 0.021       .   A
C635       C636 0.027       .   A
C635       H640 0.021       .   A
C636       C637 0.027       .   A
C636       C639 0.027       .   A
C637       C638 0.026       .   A
C637       N643 0.026       .   A
C638       H642 0.021       .   A
C639       C644 0.026       .   A
C639       H647 0.021       .   A
N643       H659 0.020       .   A
N643       H660 0.020       .   A
C644       C645 0.027       .   A
C644       H646 0.021       .   A
C645       C648 0.027       .   A
C645       C652 0.027       .   A
C648       C649 0.026       .   A
C648       H655 0.021       .   A
C649       C650 0.026       .   A
C649       H654 0.021       .   A
C650       C651 0.026       .   A
C650       C653 0.026       .   A
C651       C652 0.026       .   A
C651       H657 0.021       .   A
C652       H656 0.021       .   A
C653       C658 0.024       .   A
C605       C606 0.026       .   A
C605       C610 0.026       .   A
C606       C607 0.026       .   A
C606       H613 0.021       .   A
C607       C608 0.027       .   A
C607       H612 0.021       .   A
C608       C609 0.027       .   A
C608       C611 0.027       .   A
C609       C610 0.026       .   A
C609       N615 0.026       .   A
C610       H614 0.021       .   A
C611       C616 0.026       .   A
C611       H619 0.021       .   A
N615       H631 0.020       .   A
N615       H632 0.020       .   A
C616       C617 0.027       .   A
C616       H618 0.021       .   A
C617       C620 0.027       .   A
C617       C624 0.027       .   A
C620       C621 0.026       .   A
C620       H627 0.021       .   A
C621       C622 0.026       .   A
C621       H626 0.021       .   A
C622       C623 0.026       .   A
C622       C625 0.026       .   A
C623       C624 0.026       .   A
C623       H629 0.021       .   A
C624       H628 0.021       .   A
C625       C630 0.024       .   A
C577       C578 0.026       .   A
C577       C582 0.026       .   A
C578       C579 0.026       .   A
C578       H585 0.021       .   A
C579       C580 0.027       .   A
C579       H584 0.021       .   A
C580       C581 0.027       .   A
C580       C583 0.027       .   A
C581       C582 0.026       .   A
C581       N587 0.026       .   A
C582       H586 0.021       .   A
C583       C588 0.026       .   A
C583       H591 0.021       .   A
N587       H603 0.020       .   A
N587       H604 0.020       .   A
C588       C589 0.027       .   A
C588       H590 0.021       .   A
C589       C592 0.027       .   A
C589       C596 0.027       .   A
C592       C593 0.026       .   A
C592       H599 0.021       .   A
C593       C594 0.026       .   A
C593       H598 0.021       .   A
C594       C595 0.026       .   A
C594       C597 0.026       .   A
C595       C596 0.026       .   A
C595       H601 0.021       .   A
C596       H600 0.021       .   A
C597       C602 0.024       .   A
C549       C550 0.026       .   A
C549       C554 0.026       .   A
C550       C551 0.026       .   A
C550       H557 0.021       .   A
C551       C552 0.027       .   A
C551       H556 0.021       .   A
C552       C553 0.027       .   A
C552       C555 0.027       .   A
C553       C554 0.026       .   A
C553       N559 0.026       .   A
C554       H558 0.021       .   A
C555       C560 0.026       .   A
C555       H563 0.021       .   A
N559       H575 0.020       .   A
N559       H576 0.020       .   A
C560       C561 0.027       .   A
C560       H562 0.021       .   A
C561       C564 0.027       .   A
C561       C568 0.027       .   A
C564       C565 0.026       .   A
C564       H571 0.021       .   A
C565       C566 0.026       .   A
C565       H570 0.021       .   A
C566       C567 0.026       .   A
C566       C569 0.026       .   A
C567       C568 0.026       .   A
C567       H573 0.021       .   A
C568       H572 0.021       .   A
C569       C574 0.024       .   A
C521       C522 0.026       .   A
C521       C526 0.026       .   A
C522       C523 0.026       .   A
C522       H529 0.021       .   A
C523       C524 0.027       .   A
C523       H528 0.021       .   A
C524       C525 0.027       .   A
C524       C527 0.027       .   A
C525       C526 0.026       .   A
C525       N531 0.026       .   A
C526       H530 0.021       .   A
C527       C532 0.026       .   A
C527       H535 0.021       .   A
N531       H547 0.020       .   A
N531       H548 0.020       .   A
C532       C533 0.027       .   A
C532       H534 0.021       .   A
C533       C536 0.027       .   A
C533       C540 0.027       .   A
C536       C537 0.026       .   A
C536       H543 0.021       .   A
C537       C538 0.026       .   A
C537       H542 0.021       .   A
C538       C539 0.026       .   A
C538       C541 0.026       .   A
C539       C540 0.026       .   A
C539       H545 0.021       .   A
C540       H544 0.021       .   A
C541       C546 0.024       .   A
C493       C494 0.026       .   A
C493       C498 0.026       .   A
C494       C495 0.026       .   A
C494       H501 0.021       .   A
C495       C496 0.027       .   A
C495       H500 0.021       .   A
C496       C497 0.027       .   A
C496       C499 0.027       .   A
C497       C498 0.026       .   A
C497       N503 0.026       .   A
C498       H502 0.021       .   A
C499       C504 0.026       .   A
C499       H507 0.021       .   A
N503       H519 0.020       .   A
N503       H520 0.020       .   A
C504       C505 0.027       .   A
C504       H506 0.021       .   A
C505       C508 0.027       .   A
C505       C512 0.027       .   A
C508       C509 0.026       .   A
C508       H515 0.021       .   A
C509       C510 0.026       .   A
C509       H514 0.021       .   A
C510       C511 0.026       .   A
C510       C513 0.026       .   A
C511       C512 0.026       .   A
C511       H517 0.021       .   A
C512       H516 0.021       .   A
C513       C518 0.024       .   A
C465       C466 0.026       .   A
C465       C470 0.026       .   A
C466       C467 0.026       .   A
C466       H473 0.021       .   A
C467       C468 0.027       .   A
C467       H472 0.021       .   A
C468       C469 0.027       .   A
C468       C471 0.027       .   A
C469       C470 0.026       .   A
C469       N475 0.026       .   A
C470       H474 0.021       .   A
C471       C476 0.026       .   A
C471       H479 0.021       .   A
N475       H491 0.020       .   A
N475       H492 0.020       .   A
C476       C477 0.027       .   A
C476       H478 0.021       .   A
C477       C480 0.027       .   A
C477       C484 0.027       .   A
C480       C481 0.026       .   A
C480       H487 0.021       .   A
C481       C482 0.026       .   A
C481       H486 0.021       .   A
C482       C483 0.026       .   A
C482       C485 0.026       .   A
C483       C484 0.026       .   A
C483       H489 0.021       .   A
C484       H488 0.021       .   A
C485       C490 0.024       .   A
C437       C438 0.026       .   A
C437       C442 0.026       .   A
C438       C439 0.026       .   A
C438       H445 0.021       .   A
C439       C440 0.027       .   A
C439       H444 0.021       .   A
C440       C441 0.027       .   A
C440       C443 0.027       .   A
C441       C442 0.026       .   A
C441       N447 0.026       .   A
C442       H446 0.021       .   A
C443       C448 0.026       .   A
C443       H451 0.021       .   A
N447       H463 0.020       .   A
N447       H464 0.020       .   A
C448       C449 0.027       .   A
C448       H450 0.021       .   A
C449       C452 0.027       .   A
C449       C456 0.027       .   A
C452       C453 0.026       .   A
C452       H459 0.021       .   A
C453       C454 0.026       .   A
C453       H458 0.021       .   A
C454       C455 0.026       .   A
C454       C457 0.026       .   A
C455       C456 0.026       .   A
C455       H461 0.021       .   A
C456       H460 0.021       .   A
C457       C462 0.024       .   A
C409       C410 0.026       .   A
C409       C414 0.026       .   A
C410       C411 0.026       .   A
C410       H417 0.021       .   A
C411       C412 0.027       .   A
C411       H416 0.021       .   A
C412       C413 0.027       .   A
C412       C415 0.027       .   A
C413       C414 0.026       .   A
C413       N419 0.026       .   A
C414       H418 0.021       .   A
C415       C420 0.026       .   A
C415       H423 0.021       .   A
N419       H435 0.020       .   A
N419       H436 0.020       .   A
C420       C421 0.027       .   A
C420       H422 0.021       .   A
C421       C424 0.027       .   A
C421       C428 0.027       .   A
C424       C425 0.026       .   A
C424       H431 0.021       .   A
C425       C426 0.026       .   A
C425       H430 0.021       .   A
C426       C427 0.026       .   A
C426       C429 0.026       .   A
C427       C428 0.026       .   A
C427       H433 0.021       .   A
C428       H432 0.021       .   A
C429       C434 0.024       .   A
C381       C382 0.026       .   A
C381       C386 0.026       .   A
C382       C383 0.026       .   A
C382       H389 0.021       .   A
C383       C384 0.027       .   A
C383       H388 0.021       .   A
C384       C385 0.027       .   A
C384       C387 0.027       .   A
C385       C386 0.026       .   A
C385       N391 0.026       .   A
C386       H390 0.021       .   A
C387       C392 0.026       .   A
C387       H395 0.021       .   A
N391       H407 0.020       .   A
N391       H408 0.020       .   A
C392       C393 0.027       .   A
C392       H394 0.021       .   A
C393       C396 0.027       .   A
C393       C400 0.027       .   A
C396       C397 0.026       .   A
C396       H403 0.021       .   A
C397       C398 0.026       .   A
C397       H402 0.021       .   A
C398       C399 0.026       .   A
C398       C401 0.026       .   A
C399       C400 0.026       .   A
C399       H405 0.021       .   A
C400       H404 0.021       .   A
C401       C406 0.024       .   A
C353       C354 0.026       .   A
C353       C358 0.026       .   A
C354       C355 0.026       .   A
C354       H361 0.021       .   A
C355       C356 0.027       .   A
C355       H360 0.021       .   A
C356       C357 0.027       .   A
C356       C359 0.027       .   A
C357       C358 0.026       .   A
C357       N363 0.026       .   A
C358       H362 0.021       .   A
C359       C364 0.026       .   A
C359       H367 0.021       .   A
N363       H379 0.020       .   A
N363       H380 0.020       .   A
C364       C365 0.027       .   A
C364       H366 0.021       .   A
C365       C368 0.027       .   A
C365       C372 0.027       .   A
C368       C369 0.026       .   A
C368       H375 0.021       .   A
C369       C370 0.026       .   A
C369       H374 0.021       .   A
C370       C371 0.026       .   A
C370       C373 0.026       .   A
C371       C372 0.026       .   A
C371       H377 0.021       .   A
C372       H376 0.021       .   A
C373       C378 0.024       .   A
C325       C326 0.026       .   A
C325       C330 0.026       .   A
C326       C327 0.026       .   A
C326       H333 0.021       .   A
C327       C328 0.027       .   A
C327       H332 0.021       .   A
C328       C329 0.027       .   A
C328       C331 0.027       .   A
C329       C330 0.026       .   A
C329       N335 0.026       .   A
C330       H334 0.021       .   A
C331       C336 0.026       .   A
C331       H339 0.021       .   A
N335       H351 0.020       .   A
N335       H352 0.020       .   A
C336       C337 0.027       .   A
C336       H338 0.021       .   A
C337       C340 0.027       .   A
C337       C344 0.027       .   A
C340       C341 0.026       .   A
C340       H347 0.021       .   A
C341       C342 0.026       .   A
C341       H346 0.021       .   A
C342       C343 0.026       .   A
C342       C345 0.026       .   A
C343       C344 0.026       .   A
C343       H349 0.021       .   A
C344       H348 0.021       .   A
C345       C350 0.024       .   A
C297       C298 0.026       .   A
C297       C302 0.026       .   A
C298       C299 0.026       .   A
C298       H305 0.021       .   A
C299       C300 0.027       .   A
C299       H304 0.021       .   A
C300       C301 0.027       .   A
C300       C303 0.027       .   A
C301       C302 0.026       .   A
C301       N307 0.026       .   A
C302       H306 0.021       .   A
C303       C308 0.026       .   A
C303       H311 0.021       .   A
N307       H323 0.020       .   A
N307       H324 0.020       .   A
C308       C309 0.027       .   A
C308       H310 0.021       .   A
C309       C312 0.027       .   A
C309       C316 0.027       .   A
C312       C313 0.026       .   A
C312       H319 0.021       .   A
C313       C314 0.026       .   A
C313       H318 0.021       .   A
C314       C315 0.026       .   A
C314       C317 0.026       .   A
C315       C316 0.026       .   A
C315       H321 0.021       .   A
C316       H320 0.021       .   A
C317       C322 0.024       .   A
C269       C270 0.026       .   A
C269       C274 0.026       .   A
C270       C271 0.026       .   A
C270       H277 0.021       .   A
C271       C272 0.027       .   A
C271       H276 0.021       .   A
C272       C273 0.027       .   A
C272       C275 0.027       .   A
C273       C274 0.026       .   A
C273       N279 0.026       .   A
C274       H278 0.021       .   A
C275       C280 0.026       .   A
C275       H283 0.021       .   A
N279       H295 0.020       .   A
N279       H296 0.020       .   A
C280       C281 0.027       .   A
C280       H282 0.021       .   A
C281       C284 0.027       .   A
C281       C288 0.027       .   A
C284       C285 0.026       .   A
C284       H291 0.021       .   A
C285       C286 0.026       .   A
C285       H290 0.021       .   A
C286       C287 0.026       .   A
C286       C289 0.026       .   A
C287       C288 0.026       .   A
C287       H293 0.021       .   A
C288       H292 0.021       .   A
C289       C294 0.024       .   A
C241       C242 0.026       .   A
C241       C246 0.026       .   A
C242       C243 0.026       .   A
C242       H249 0.021       .   A
C243       C244 0.027       .   A
C243       H248 0.021       .   A
C244       C245 0.027       .   A
C244       C247 0.027       .   A
C245       C246 0.026       .   A
C245       N251 0.026       .   A
C246       H250 0.021       .   A
C247       C252 0.026       .   A
C247       H255 0.021       .   A
N251       H267 0.020       .   A
N251       H268 0.020       .   A
C252       C253 0.027       .   A
C252       H254 0.021       .   A
C253       C256 0.027       .   A
C253       C260 0.027       .   A
C256       C257 0.026       .   A
C256       H263 0.021       .   A
C257       C258 0.026       .   A
C257       H262 0.021       .   A
C258       C259 0.026       .   A
C258       C261 0.026       .   A
C259       C260 0.026       .   A
C259       H265 0.021       .   A
C260       H264 0.021       .   A
C261       C266 0.024       .   A
C213       C214 0.026       .   A
C213       C218 0.026       .   A
C214       C215 0.026       .   A
C214       H221 0.021       .   A
C215       C216 0.027       .   A
C215       H220 0.021       .   A
C216       C217 0.027       .   A
C216       C219 0.027       .   A
C217       C218 0.026       .   A
C217       N223 0.026       .   A
C218       H222 0.021       .   A
C219       C224 0.026       .   A
C219       H227 0.021       .   A
N223       H239 0.020       .   A
N223       H240 0.020       .   A
C224       C225 0.027       .   A
C224       H226 0.021       .   A
C225       C228 0.027       .   A
C225       C232 0.027       .   A
C228       C229 0.026       .   A
C228       H235 0.021       .   A
C229       C230 0.026       .   A
C229       H234 0.021       .   A
C230       C231 0.026       .   A
C230       C233 0.026       .   A
C231       C232 0.026       .   A
C231       H237 0.021       .   A
C232       H236 0.021       .   A
C233       C238 0.024       .   A
C185       C186 0.026       .   A
C185       C190 0.026       .   A
C186       C187 0.026       .   A
C186       H193 0.021       .   A
C187       C188 0.027       .   A
C187       H192 0.021       .   A
C188       C189 0.027       .   A
C188       C191 0.027       .   A
C189       C190 0.026       .   A
C189       N195 0.026       .   A
C190       H194 0.021       .   A
C191       C196 0.026       .   A
C191       H199 0.021       .   A
N195       H211 0.020       .   A
N195       H212 0.020       .   A
C196       C197 0.027       .   A
C196       H198 0.021       .   A
C197       C200 0.027       .   A
C197       C204 0.027       .   A
C200       C201 0.026       .   A
C200       H207 0.021       .   A
C201       C202 0.026       .   A
C201       H206 0.021       .   A
C202       C203 0.026       .   A
C202       C205 0.026       .   A
C203       C204 0.026       .   A
C203       H209 0.021       .   A
C204       H208 0.021       .   A
C205       C210 0.024       .   A
