data_pcu_v1-6c_Zn_1_Ch_1-45_fer_tobacco
_audit_creation_date              2021-02-03
_audit_creation_method            'tobacco_3.0'
_symmetry_space_group_name_H-M    'P1'
_symmetry_Int_Tables_number       1
_symmetry_cell_setting            triclinic
loop_
_symmetry_equiv_pos_as_xyz
  x,y,z
_cell_length_a                    39.189550244042394
_cell_length_b                    39.189550244042394
_cell_length_c                    39.189550244042394
_cell_angle_alpha                 90.0
_cell_angle_beta                  90.0
_cell_angle_gamma                 90.0
loop_
_atom_site_label
_atom_site_type_symbol
_atom_site_fract_x
_atom_site_fract_y
_atom_site_fract_z
_atom_site_charge
Zn1       Zn    0.0286096675   -0.0286096675    0.0286096675          1.4972
Zn2       Zn   -0.0286096675   -0.0286096675   -0.0286096675          1.4936
Zn3       Zn   -0.0286096675    0.0286096675    0.0286096675          1.4911
Zn4       Zn    0.0286096675    0.0286096675   -0.0286096675          1.4948
O5         O    0.0000000000    0.0000000000    0.0000000000         -2.1777
O6         O    0.0210260132   -0.0764642610    0.0210260132          -1.084
O7         O   -0.0764642610   -0.0210260132   -0.0210260132         -1.0822
O8         O   -0.0210260132    0.0210260132    0.0764642610         -1.0774
O9         O   -0.0210260132   -0.0764642610   -0.0210260132         -1.0842
O10        O    0.0210260132   -0.0210260132    0.0764642610         -1.0801
O11        O   -0.0764642610    0.0210260132    0.0210260132          -1.086
O12        O    0.0210260132    0.0764642610   -0.0210260132         -1.0799
O13        O   -0.0210260132   -0.0210260132   -0.0764642610         -1.0875
O14        O   -0.0210260132    0.0764642610    0.0210260132         -1.0814
O15        O    0.0210260132    0.0210260132   -0.0764642610          -1.086
O16        O    0.0764642610    0.0210260132   -0.0210260132         -1.0851
O17        O    0.0764642610   -0.0210260132    0.0210260132          -1.083
C18        C    0.0000000000   -0.0914223301   -0.0000000000          0.4349
C19        C   -0.0914223301    0.0000000000    0.0000000000          0.4398
C20        C    0.0000000000   -0.0000000000    0.0914223301          0.4294
C21        C   -0.0000000000    0.0914223301    0.0000000000          0.4331
C22        C   -0.0000000000    0.0000000000   -0.0914223301          0.4445
C23        C    0.0914223301   -0.0000000000   -0.0000000000           0.435
Zn24      Zn    0.9713903325    0.0286096675    0.4713903325          1.4972
Zn25      Zn    1.0286096675   -0.0286096675    0.4713903325          1.4936
Zn26      Zn    1.0286096675    0.0286096675    0.5286096675          1.4911
Zn27      Zn    0.9713903325   -0.0286096675    0.5286096675          1.4948
O28        O    1.0000000000    0.0000000000    0.5000000000         -2.1777
O29        O    0.9789739868    0.0210260132    0.4235357390          -1.084
O30        O    1.0764642610   -0.0210260132    0.4789739868         -1.0822
O31        O    1.0210260132    0.0764642610    0.5210260132         -1.0774
O32        O    1.0210260132   -0.0210260132    0.4235357390         -1.0842
O33        O    0.9789739868    0.0764642610    0.4789739868         -1.0801
O34        O    1.0764642610    0.0210260132    0.5210260132          -1.086
O35        O    0.9789739868   -0.0210260132    0.5764642610         -1.0799
O36        O    1.0210260132   -0.0764642610    0.4789739868         -1.0875
O37        O    1.0210260132    0.0210260132    0.5764642610         -1.0814
O38        O    0.9789739868   -0.0764642610    0.5210260132          -1.086
O39        O    0.9235357390   -0.0210260132    0.5210260132         -1.0851
O40        O    0.9235357390    0.0210260132    0.4789739868          -1.083
C41        C    1.0000000000    0.0000000000    0.4085776699          0.4349
C42        C    1.0914223301    0.0000000000    0.5000000000          0.4398
C43        C    1.0000000000    0.0914223301    0.5000000000          0.4294
C44        C    1.0000000000    0.0000000000    0.5914223301          0.4331
C45        C    1.0000000000   -0.0914223301    0.5000000000          0.4445
C46        C    0.9085776699    0.0000000000    0.5000000000           0.435
Zn47      Zn    1.0286096675    0.4713903325    0.0286096675          1.4972
Zn48      Zn    0.9713903325    0.4713903325   -0.0286096675          1.4936
Zn49      Zn    0.9713903325    0.5286096675    0.0286096675          1.4911
Zn50      Zn    1.0286096675    0.5286096675   -0.0286096675          1.4948
O51        O    1.0000000000    0.5000000000    0.0000000000         -2.1777
O52        O    1.0210260132    0.4235357390    0.0210260132          -1.084
O53        O    0.9235357390    0.4789739868   -0.0210260132         -1.0822
O54        O    0.9789739868    0.5210260132    0.0764642610         -1.0774
O55        O    0.9789739868    0.4235357390   -0.0210260132         -1.0842
O56        O    1.0210260132    0.4789739868    0.0764642610         -1.0801
O57        O    0.9235357390    0.5210260132    0.0210260132          -1.086
O58        O    1.0210260132    0.5764642610   -0.0210260132         -1.0799
O59        O    0.9789739868    0.4789739868   -0.0764642610         -1.0875
O60        O    0.9789739868    0.5764642610    0.0210260132         -1.0814
O61        O    1.0210260132    0.5210260132   -0.0764642610          -1.086
O62        O    1.0764642610    0.5210260132   -0.0210260132         -1.0851
O63        O    1.0764642610    0.4789739868    0.0210260132          -1.083
C64        C    1.0000000000    0.4085776699    0.0000000000          0.4349
C65        C    0.9085776699    0.5000000000    0.0000000000          0.4398
C66        C    1.0000000000    0.5000000000    0.0914223301          0.4294
C67        C    1.0000000000    0.5914223301    0.0000000000          0.4331
C68        C    1.0000000000    0.5000000000   -0.0914223301          0.4445
C69        C    1.0914223301    0.5000000000    0.0000000000           0.435
Zn70      Zn    0.9713903325    0.4713903325    0.5286096675          1.4972
Zn71      Zn    1.0286096675    0.4713903325    0.4713903325          1.4936
Zn72      Zn    0.9713903325    0.5286096675    0.4713903325          1.4911
Zn73      Zn    1.0286096675    0.5286096675    0.5286096675          1.4948
O74        O    1.0000000000    0.5000000000    0.5000000000         -2.1777
O75        O    0.9789739868    0.4235357390    0.5210260132          -1.084
O76        O    1.0210260132    0.4789739868    0.4235357390         -1.0822
O77        O    0.9235357390    0.5210260132    0.4789739868         -1.0774
O78        O    1.0210260132    0.4235357390    0.4789739868         -1.0842
O79        O    0.9235357390    0.4789739868    0.5210260132         -1.0801
O80        O    0.9789739868    0.5210260132    0.4235357390          -1.086
O81        O    1.0210260132    0.5764642610    0.5210260132         -1.0799
O82        O    1.0764642610    0.4789739868    0.4789739868         -1.0875
O83        O    0.9789739868    0.5764642610    0.4789739868         -1.0814
O84        O    1.0764642610    0.5210260132    0.5210260132          -1.086
O85        O    1.0210260132    0.5210260132    0.5764642610         -1.0851
O86        O    0.9789739868    0.4789739868    0.5764642610          -1.083
C87        C    1.0000000000    0.4085776699    0.5000000000          0.4349
C88        C    1.0000000000    0.5000000000    0.4085776699          0.4398
C89        C    0.9085776699    0.5000000000    0.5000000000          0.4294
C90        C    1.0000000000    0.5914223301    0.5000000000          0.4331
C91        C    1.0914223301    0.5000000000    0.5000000000          0.4445
C92        C    1.0000000000    0.5000000000    0.5914223301           0.435
Zn93      Zn    0.4713903325    0.9713903325   -0.0286096675          1.4972
Zn94      Zn    0.4713903325    1.0286096675    0.0286096675          1.4936
Zn95      Zn    0.5286096675    0.9713903325    0.0286096675          1.4911
Zn96      Zn    0.5286096675    1.0286096675   -0.0286096675          1.4948
O97        O    0.5000000000    1.0000000000    0.0000000000         -2.1777
O98        O    0.4235357390    0.9789739868   -0.0210260132          -1.084
O99        O    0.4789739868    1.0210260132    0.0764642610         -1.0822
O100       O    0.5210260132    0.9235357390    0.0210260132         -1.0774
O101       O    0.4235357390    1.0210260132    0.0210260132         -1.0842
O102       O    0.4789739868    0.9235357390   -0.0210260132         -1.0801
O103       O    0.5210260132    0.9789739868    0.0764642610          -1.086
O104       O    0.5764642610    1.0210260132   -0.0210260132         -1.0799
O105       O    0.4789739868    1.0764642610    0.0210260132         -1.0875
O106       O    0.5764642610    0.9789739868    0.0210260132         -1.0814
O107       O    0.5210260132    1.0764642610   -0.0210260132          -1.086
O108       O    0.5210260132    1.0210260132   -0.0764642610         -1.0851
O109       O    0.4789739868    0.9789739868   -0.0764642610          -1.083
C110       C    0.4085776699    1.0000000000    0.0000000000          0.4349
C111       C    0.5000000000    1.0000000000    0.0914223301          0.4398
C112       C    0.5000000000    0.9085776699    0.0000000000          0.4294
C113       C    0.5914223301    1.0000000000    0.0000000000          0.4331
C114       C    0.5000000000    1.0914223301    0.0000000000          0.4445
C115       C    0.5000000000    1.0000000000   -0.0914223301           0.435
Zn116     Zn    0.5286096675    0.9713903325    0.5286096675          1.4972
Zn117     Zn    0.4713903325    0.9713903325    0.4713903325          1.4936
Zn118     Zn    0.4713903325    1.0286096675    0.5286096675          1.4911
Zn119     Zn    0.5286096675    1.0286096675    0.4713903325          1.4948
O120       O    0.5000000000    1.0000000000    0.5000000000         -2.1777
O121       O    0.5210260132    0.9235357390    0.5210260132          -1.084
O122       O    0.4235357390    0.9789739868    0.4789739868         -1.0822
O123       O    0.4789739868    1.0210260132    0.5764642610         -1.0774
O124       O    0.4789739868    0.9235357390    0.4789739868         -1.0842
O125       O    0.5210260132    0.9789739868    0.5764642610         -1.0801
O126       O    0.4235357390    1.0210260132    0.5210260132          -1.086
O127       O    0.5210260132    1.0764642610    0.4789739868         -1.0799
O128       O    0.4789739868    0.9789739868    0.4235357390         -1.0875
O129       O    0.4789739868    1.0764642610    0.5210260132         -1.0814
O130       O    0.5210260132    1.0210260132    0.4235357390          -1.086
O131       O    0.5764642610    1.0210260132    0.4789739868         -1.0851
O132       O    0.5764642610    0.9789739868    0.5210260132          -1.083
C133       C    0.5000000000    0.9085776699    0.5000000000          0.4349
C134       C    0.4085776699    1.0000000000    0.5000000000          0.4398
C135       C    0.5000000000    1.0000000000    0.5914223301          0.4294
C136       C    0.5000000000    1.0914223301    0.5000000000          0.4331
C137       C    0.5000000000    1.0000000000    0.4085776699          0.4445
C138       C    0.5914223301    1.0000000000    0.5000000000           0.435
Zn139     Zn    0.4713903325    0.5286096675   -0.0286096675          1.4972
Zn140     Zn    0.4713903325    0.4713903325    0.0286096675          1.4936
Zn141     Zn    0.5286096675    0.4713903325   -0.0286096675          1.4911
Zn142     Zn    0.5286096675    0.5286096675    0.0286096675          1.4948
O143       O    0.5000000000    0.5000000000    0.0000000000         -2.1777
O144       O    0.4235357390    0.5210260132   -0.0210260132          -1.084
O145       O    0.4789739868    0.4235357390    0.0210260132         -1.0822
O146       O    0.5210260132    0.4789739868   -0.0764642610         -1.0774
O147       O    0.4235357390    0.4789739868    0.0210260132         -1.0842
O148       O    0.4789739868    0.5210260132   -0.0764642610         -1.0801
O149       O    0.5210260132    0.4235357390   -0.0210260132          -1.086
O150       O    0.5764642610    0.5210260132    0.0210260132         -1.0799
O151       O    0.4789739868    0.4789739868    0.0764642610         -1.0875
O152       O    0.5764642610    0.4789739868   -0.0210260132         -1.0814
O153       O    0.5210260132    0.5210260132    0.0764642610          -1.086
O154       O    0.5210260132    0.5764642610    0.0210260132         -1.0851
O155       O    0.4789739868    0.5764642610   -0.0210260132          -1.083
C156       C    0.4085776699    0.5000000000    0.0000000000          0.4349
C157       C    0.5000000000    0.4085776699    0.0000000000          0.4398
C158       C    0.5000000000    0.5000000000   -0.0914223301          0.4294
C159       C    0.5914223301    0.5000000000    0.0000000000          0.4331
C160       C    0.5000000000    0.5000000000    0.0914223301          0.4445
C161       C    0.5000000000    0.5914223301    0.0000000000           0.435
Zn162     Zn    0.4713903325    0.5286096675    0.4713903325          1.4972
Zn163     Zn    0.4713903325    0.4713903325    0.5286096675          1.4936
Zn164     Zn    0.5286096675    0.4713903325    0.4713903325          1.4911
Zn165     Zn    0.5286096675    0.5286096675    0.5286096675          1.4948
O166       O    0.5000000000    0.5000000000    0.5000000000         -2.1777
O167       O    0.4235357390    0.5210260132    0.4789739868          -1.084
O168       O    0.4789739868    0.4235357390    0.5210260132         -1.0822
O169       O    0.5210260132    0.4789739868    0.4235357390         -1.0774
O170       O    0.4235357390    0.4789739868    0.5210260132         -1.0842
O171       O    0.4789739868    0.5210260132    0.4235357390         -1.0801
O172       O    0.5210260132    0.4235357390    0.4789739868          -1.086
O173       O    0.5764642610    0.5210260132    0.5210260132         -1.0799
O174       O    0.4789739868    0.4789739868    0.5764642610         -1.0875
O175       O    0.5764642610    0.4789739868    0.4789739868         -1.0814
O176       O    0.5210260132    0.5210260132    0.5764642610          -1.086
O177       O    0.5210260132    0.5764642610    0.5210260132         -1.0851
O178       O    0.4789739868    0.5764642610    0.4789739868 -1.0757999999999999
C179       C    0.4085776699    0.5000000000    0.5000000000          0.4349
C180       C    0.5000000000    0.4085776699    0.5000000000          0.4398
C181       C    0.5000000000    0.5000000000    0.4085776699          0.4294
C182       C    0.5914223301    0.5000000000    0.5000000000          0.4331
C183       C    0.5000000000    0.5000000000    0.5914223301          0.4445
C184       C    0.5000000000    0.5914223301    0.5000000000           0.435
C714       C    0.5000000000    0.5000000000   -0.1307185198         -0.3323
C715       C    0.5272962627    0.5062699761   -0.1497173343         -0.3382
C716       C    0.5245890071    0.5112738604   -0.1832312776          0.6569
C717       C    0.4947135406    0.5097123840   -0.2009895785          0.6583
C718       C    0.4674905601    0.5037797531   -0.1805380876          -0.336
C719       C    0.4698957734    0.4992111124   -0.1467406311         -0.3316
C720       C    0.4913950179    0.5127431290   -0.2361448704          0.6553
H721       H    0.5494379036    0.5161023353   -0.1937138690          0.6523
H722       H    0.5525839195    0.5073446730   -0.1381909056         -0.3392
H723       H    0.4465832858    0.4943483295   -0.1325548030         -0.3269
H724       H    0.4417468267    0.5022040402   -0.1901669972         -0.3346
C725       C    0.5174711070    0.5184134865   -0.2581329537          0.6499
C726       C    0.5153152832    0.5172130134   -0.2923178626          0.6509
C727       C    0.4859112484    0.5097419953   -0.3076312847          0.6578
C728       C    0.4589727689    0.5062612258   -0.2869409133         -0.3388
C729       C    0.4614603851    0.5080477866   -0.2527637141          0.6597
N730       N    0.4843639079    0.5040068687   -0.3404263966         -0.3369
Cl731     Cl    0.5522258811    0.5228985719   -0.3167695950          0.6454
O732       O    0.5489518397    0.5173851074   -0.2488620003          0.6509
H733       H    0.4378282982    0.5032066257   -0.2394422406         -0.3357
H734       H    0.4342529810    0.5002137631   -0.2979940999         -0.3332
H735       H    0.5491101299    0.4941285018   -0.2568747351         -0.3273
N736       N    0.5000000000    0.5000000000   -0.3692814802         -0.3333
C691       C    0.5000000000    0.5000000000    0.3692814802         -0.3323
C692       C    0.5056681026    0.4725724377    0.3502826657         -0.3382
C693       C    0.5107303202    0.4751689826    0.3167687224          0.6569
C694       C    0.5098263055    0.5050715654    0.2990104215          0.6583
C695       C    0.5044938547    0.5324184436    0.3194619124          -0.336
C696       C    0.4998734187    0.5301142953    0.3532593689         -0.3316
C697       C    0.5129293052    0.5083226269    0.2638551296          0.6553
H698       H    0.5150110979    0.4502198990    0.3062861310          0.6523
H699       H    0.5061863602    0.4472672610    0.3618090944         -0.3392
H700       H    0.4955245493    0.5535280962    0.3674451970         -0.3269
H701       H    0.5034847332    0.5581906061    0.3098330028         -0.3346
C702       C    0.5180247710    0.4821281311    0.2418670463          0.6499
C703       C    0.5168720037    0.4843098368    0.2076821374          0.6509
C704       C    0.5100495081    0.5138710771    0.1923687153          0.6578
C705       C    0.5071620683    0.5408795966    0.2130590867         -0.3388
C706       C    0.5088934840    0.5383532883    0.2472362859          0.6597
N707       N    0.5043498012    0.5155441823    0.1595736034         -0.3369
Cl708     Cl    0.5217443714    0.4472831188    0.1832304050          0.6454
O709       O    0.5163042503    0.4506776319    0.2511379997          0.6509
H710       H    0.5045732607    0.5620861357    0.2605577594         -0.3357
H711       H    0.5016597579    0.5657264133    0.2020059001         -0.3332
H712       H    0.4930497890    0.4510308881    0.2431252649         -0.3273
N713       N    0.5000000000    0.5000000000    0.1307185198         -0.3333
C668       C    0.5000000000    0.8692814802    0.5000000000         -0.3323
C669       C    0.4930113325    0.8502826657    0.5271211557         -0.3382
C670       C    0.4986997122    0.8167687224    0.5270190387          0.6569
C671       C    0.5110555776    0.7990104215    0.4997735932          0.6583
C672       C    0.5183100735    0.8194619124    0.4728726812          -0.336
C673       C    0.5131470934    0.8532593689    0.4729068138         -0.3316
C674       C    0.5152731319    0.7638551296    0.4982210973          0.6553
H675       H    0.4915568570    0.8062861310    0.5513040433          0.6523
H676       H    0.4823335781    0.8618090944    0.5500690558         -0.3392
H677       H    0.5195527569    0.8674451970    0.4499702445         -0.3269
H678       H    0.5287527526    0.8098330028    0.4492893579         -0.3346
C679       C    0.5083133124    0.7418670463    0.5239830128          0.6499
C680       C    0.5082390338    0.7076821374    0.5215165995          0.6509
C681       C    0.5151308142    0.6923687153    0.4919714351          0.6578
C682       C    0.5244315134    0.7130590867    0.4664509643         -0.3388
C683       C    0.5248735738    0.7472362859    0.4694815775          0.6597
N684       N    0.5107502069    0.6595736034    0.4879594258         -0.3369
Cl685     Cl    0.4963089734    0.6832304050    0.5569057429          0.6454
O686       O    0.4929194462    0.7511379997    0.5514625138          0.6509
H687       H    0.5314454477    0.7605577594    0.4462711737         -0.3357
H688       H    0.5304326100    0.7020059001    0.4417198794         -0.3332
H689       H    0.4721965036    0.7431252649    0.5409053168         -0.3273
N690       N    0.5000000000    0.6307185198    0.5000000000         -0.3333
C645       C    0.5000000000    1.1307185198    0.5000000000         -0.3323
C646       C    0.4727037373    1.1497173343    0.4937300239         -0.3382
C647       C    0.4754109929    1.1832312776    0.4887261396          0.6569
C648       C    0.5052864594    1.2009895785    0.4902876160          0.6583
C649       C    0.5325094399    1.1805380876    0.4962202469          -0.336
C650       C    0.5301042266    1.1467406311    0.5007888876         -0.3316
C651       C    0.5086049821    1.2361448704    0.4872568710          0.6553
H652       H    0.4505620964    1.1937138690    0.4838976647          0.6523
H653       H    0.4474160805    1.1381909056    0.4926553270         -0.3392
H654       H    0.5534167142    1.1325548030    0.5056516705         -0.3269
H655       H    0.5582531733    1.1901669972    0.4977959598         -0.3346
C656       C    0.4825288930    1.2581329537    0.4815865135          0.6499
C657       C    0.4846847168    1.2923178626    0.4827869866          0.6509
C658       C    0.5140887516    1.3076312847    0.4902580047          0.6578
C659       C    0.5410272311    1.2869409133    0.4937387742         -0.3388
C660       C    0.5385396149    1.2527637141    0.4919522134          0.6597
N661       N    0.5156360921    1.3404263966    0.4959931313         -0.3369
Cl662     Cl    0.4477741189    1.3167695950    0.4771014281          0.6454
O663       O    0.4510481603    1.2488620003    0.4826148926          0.6509
H664       H    0.5621717018    1.2394422406    0.4967933743         -0.3357
H665       H    0.5657470190    1.2979940999    0.4997862369         -0.3332
H666       H    0.4508898701    1.2568747351    0.5058714982         -0.3273
N667       N    0.5000000000    1.3692814802    0.5000000000         -0.3333
C622       C    0.5000000000    0.8692814802    0.0000000000         -0.3323
C623       C    0.5083229343    0.8502826657   -0.0267418646         -0.3382
C624       C    0.5026364753    0.8167687224   -0.0269215192          0.6569
C625       C    0.4889467721    0.7990104215   -0.0003212611          0.6583
C626       C    0.4803692402    0.8194619124    0.0261874681          -0.336
C627       C    0.4855275779    0.8532593689    0.0264090098         -0.3316
C628       C    0.4846575226    0.7638551296    0.0010205087          0.6553
H629       H    0.5109729832    0.8062861310   -0.0508230770          0.6523
H630       H    0.5201238022    0.8618090944   -0.0491329360         -0.3392
H631       H    0.4779941222    0.8674451970    0.0490002865         -0.3269
H632       H    0.4687716979    0.8098330028    0.0492248224         -0.3346
C633       C    0.4928843447    0.7418670463   -0.0243652112          0.6499
C634       C    0.4928364138    0.7076821374   -0.0218981452          0.6509
C635       C    0.4844902288    0.6923687153    0.0072695522          0.6578
C636       C    0.4739373525    0.7130590867    0.0322982205         -0.3388
C637       C    0.4736458878    0.7472362859    0.0292494368          0.6597
N638       N    0.4886668184    0.6595736034    0.0114935359         -0.3369
Cl639     Cl    0.5065040498    0.6832304050   -0.0566531957          0.6454
O640       O    0.5096199114    0.7511379997   -0.0510488186          0.6509
H641       H    0.4659328672    0.7605577594    0.0521059826         -0.3357
H642       H    0.4667191164    0.7020059001    0.0567018429         -0.3332
H643       H    0.5297947233    0.7431252649   -0.0394785235         -0.3273
N644       N    0.5000000000    0.6307185198    0.0000000000         -0.3333
C599       C    0.5000000000    1.3692814802    0.0000000000         -0.3323
C600       C    0.5082494049    1.3502826657    0.0267646386         -0.3382
C601       C    0.5130419045    1.3167687224    0.0236986903          0.6569
C602       C    0.5092997702    1.2990104215   -0.0059825855          0.6583
C603       C    0.5013921665    1.3194619124   -0.0326988087          -0.336
C604       C    0.4970116562    1.3532593689   -0.0299659240         -0.3316
C605       C    0.5120797111    1.2638551296   -0.0095138652          0.6553
H606       H    0.5196746884    1.3062861310    0.0481279353          0.6523
H607       H    0.5111705494    1.3618090944    0.0519059885         -0.3392
H608       H    0.4904570161    1.3674451970   -0.0528603651         -0.3269
H609       H    0.4979379938    1.3098330028   -0.0582583739         -0.3346
C610       C    0.5196418698    1.2418670463    0.0160777180          0.6499
C611       C    0.5182869525    1.2076821374    0.0140154592          0.6509
C612       C    0.5086855770    1.1923687153   -0.0147634733          0.6578
C613       C    0.5032440753    1.2130590867   -0.0413752658         -0.3388
C614       C    0.5052077755    1.2472362859   -0.0390249646          0.6597
N615       N    0.5028526480    1.1595736034   -0.0158872519         -0.3369
Cl616     Cl    0.5266566158    1.1832304050    0.0504114281          0.6454
O617       O    0.5209184791    1.2511379997    0.0475493618          0.6509
H618       H    0.4986513267    1.2605577594   -0.0622397304         -0.3357
H619       H    0.4954050096    1.2020059001   -0.0655866013         -0.3332
H620       H    0.4977357236    1.2431252649    0.0494080196         -0.3273
N621       N    0.5000000000    1.1307185198    0.0000000000         -0.3333
C576       C    0.5000000000    1.0000000000   -0.3692814802         -0.3323
C577       C    0.5272792345    0.9936563479   -0.3502826657         -0.3382
C578       C    0.5245584785    0.9886597913   -0.3167687224          0.6569
C579       C    0.4946873368    0.9903019247   -0.2990104215          0.6583
C580       C    0.4674804734    0.9963080350   -0.3194619124          -0.336
C581       C    0.4698980131    1.0008701650   -0.3532593689         -0.3316
C582       C    0.4913606433    0.9872801506   -0.2638551296          0.6553
H583       H    0.5493942477    0.9837642429   -0.3062861310          0.6523
H584       H    0.5525638975    0.9925133792   -0.3618090944         -0.3392
H585       H    0.4465987398    1.0057958730   -0.3674451970         -0.3269
H586       H    0.4417410882    0.9979532493   -0.3098330028         -0.3346
C587       C    0.5174213276    0.9815394093   -0.2418670463          0.6499
C588       C    0.5152687529    0.9827456986   -0.2076821374          0.6509
C589       C    0.4858849967    0.9902960793   -0.1923687153          0.6578
C590       C    0.4589560133    0.9938495690   -0.2130590867         -0.3388
C591       C    0.4614387969    0.9920562983   -0.2472362859          0.6597
N592       N    0.4843531465    0.9960353628   -0.1595736034         -0.3369
Cl593     Cl    0.5521638654    0.9769605037   -0.1832304050          0.6454
O594       O    0.5489047221    0.9824827878   -0.2511379997          0.6509
H595       H    0.4378198670    0.9969612472   -0.2605577594         -0.3357
H596       H    0.4342526435    0.9999637522   -0.2020059001         -0.3332
H597       H    0.5491258038    1.0057388813   -0.2431252649         -0.3273
N598       N    0.5000000000    1.0000000000   -0.1307185198         -0.3333
C553       C    0.5000000000    1.0000000000    0.3692814802         -0.3323
C554       C    0.5056681026    0.9725724377    0.3502826657         -0.3382
C555       C    0.5107303202    0.9751689826    0.3167687224          0.6569
C556       C    0.5098263055    1.0050715654    0.2990104215          0.6583
C557       C    0.5044938547    1.0324184436    0.3194619124          -0.336
C558       C    0.4998734187    1.0301142953    0.3532593689         -0.3316
C559       C    0.5129293052    1.0083226269    0.2638551296          0.6553
H560       H    0.5150110979    0.9502198990    0.3062861310          0.6523
H561       H    0.5061863602    0.9472672610    0.3618090944         -0.3392
H562       H    0.4955245493    1.0535280962    0.3674451970         -0.3269
H563       H    0.5034847332    1.0581906061    0.3098330028         -0.3346
C564       C    0.5180247710    0.9821281311    0.2418670463          0.6499
C565       C    0.5168720037    0.9843098368    0.2076821374          0.6509
C566       C    0.5100495081    1.0138710771    0.1923687153          0.6578
C567       C    0.5071620683    1.0408795966    0.2130590867         -0.3388
C568       C    0.5088934840    1.0383532883    0.2472362859          0.6597
N569       N    0.5043498012    1.0155441823    0.1595736034         -0.3369
Cl570     Cl    0.5217443714    0.9472831188    0.1832304050          0.6454
O571       O    0.5163042503    0.9506776319    0.2511379997          0.6509
H572       H    0.5045732607    1.0620861357    0.2605577594         -0.3357
H573       H    0.5016597579    1.0657264133    0.2020059001         -0.3332
H574       H    0.4930497890    0.9510308881    0.2431252649         -0.3273
N575       N    0.5000000000    1.0000000000    0.1307185198         -0.3333
C530       C    0.8692814802    0.5000000000    0.5000000000         -0.3323
C531       C    0.8502826657    0.4763321546    0.5149743666         -0.3382
C532       C    0.8167687224    0.4746837002    0.5095291219          0.6569
C533       C    0.7990104215    0.4968227580    0.4894083907          0.6583
C534       C    0.8194619124    0.5201994095    0.4742486103          -0.336
C535       C    0.8532593689    0.5217513339    0.4791729437         -0.3316
C536       C    0.7638551296    0.4970060650    0.4849179111          0.6553
H537       H    0.8062861310    0.4537624746    0.5237798814          0.6523
H538       H    0.8618090944    0.4577683024    0.5321791320         -0.3392
H539       H    0.8674451970    0.5416154170    0.4660376119         -0.3269
H540       H    0.8098330028    0.5394401645    0.4570725796         -0.3346
C541       C    0.7418670463    0.4746230216    0.4994476994          0.6499
C542       C    0.7076821374    0.4769932215    0.4987615036          0.6509
C543       C    0.6923687153    0.5029978461    0.4831354718          0.6578
C544       C    0.7130590867    0.5244327281    0.4664518489         -0.3388
C545       C    0.7472362859    0.5214126873    0.4669611500          0.6597
N546       N    0.6595736034    0.5081605865    0.4860735072         -0.3369
Cl547     Cl    0.6832304050    0.4469727405    0.5209761054          0.6454
O548       O    0.7511379997    0.4531935004    0.5225316704          0.6509
H549       H    0.7605577594    0.5414863854    0.4535835936         -0.3357
H550       H    0.7020059001    0.5461288917    0.4531508639         -0.3332
H551       H    0.7431252649    0.4696007328    0.5390149190         -0.3273
N552       N    0.6307185198    0.5000000000    0.5000000000         -0.3333
C507       C    1.1307185198    0.5000000000    0.5000000000         -0.3323
C508       C    1.1497173343    0.4850256334    0.5236678454         -0.3382
C509       C    1.1832312776    0.4904708781    0.5253162998          0.6569
C510       C    1.2009895785    0.5105916093    0.5031772420          0.6583
C511       C    1.1805380876    0.5257513897    0.4798005905          -0.336
C512       C    1.1467406311    0.5208270563    0.4782486661         -0.3316
C513       C    1.2361448704    0.5150820889    0.5029939350          0.6553
H514       H    1.1937138690    0.4762201186    0.5462375254          0.6523
H515       H    1.1381909056    0.4678208680    0.5422316976         -0.3392
H516       H    1.1325548030    0.5339623881    0.4583845830         -0.3269
H517       H    1.1901669972    0.5429274204    0.4605598355         -0.3346
C518       C    1.2581329537    0.5005523006    0.5253769784          0.6499
C519       C    1.2923178626    0.5012384964    0.5230067785          0.6509
C520       C    1.3076312847    0.5168645282    0.4970021539          0.6578
C521       C    1.2869409133    0.5335481511    0.4755672719         -0.3388
C522       C    1.2527637141    0.5330388500    0.4785873127          0.6597
N523       N    1.3404263966    0.5139264928    0.4918394135         -0.3369
Cl524     Cl    1.3167695950    0.4790238946    0.5530272595          0.6454
O525       O    1.2488620003    0.4774683296    0.5468064996          0.6509
H526       H    1.2394422406    0.5464164064    0.4585136146         -0.3357
H527       H    1.2979940999    0.5468491361    0.4538711083         -0.3332
H528       H    1.2568747351    0.4609850810    0.5303992672         -0.3273
N529       N    1.3692814802    0.5000000000    0.5000000000         -0.3333
C484       C    0.8692814802    0.5000000000    0.0000000000         -0.3323
C485       C    0.8502826657    0.5219040890    0.0174530641         -0.3382
C486       C    0.8167687224    0.5172998392    0.0207950658          0.6569
C487       C    0.7990104215    0.4910346545    0.0064729927          0.6583
C488       C    0.8194619124    0.4690508263   -0.0106441938          -0.336
C489       C    0.8532593689    0.4731945708   -0.0137242766         -0.3316
C490       C    0.7638551296    0.4867321079    0.0077714922          0.6553
H491       H    0.8062861310    0.5376201254    0.0358903564          0.6523
H492       H    0.8618090944    0.5442426402    0.0293530509         -0.3392
H493       H    0.8674451970    0.4542745688   -0.0281863740         -0.3269
H494       H    0.8098330028    0.4465175786   -0.0231931154         -0.3346
C495       C    0.7418670463    0.5077950994    0.0241564172          0.6499
C496       C    0.7076821374    0.5063700072    0.0221420130          0.6509
C497       C    0.6923687153    0.4830844027    0.0026948025          0.6578
C498       C    0.7130590867    0.4602972774   -0.0120884434         -0.3388
C499       C    0.7472362859    0.4617682197   -0.0094021145          0.6597
N500       N    0.6595736034    0.4841681655   -0.0031456938         -0.3369
Cl501     Cl    0.6832304050    0.5371964278    0.0432239865          0.6454
O502       O    0.7511379997    0.5366273251    0.0368369873          0.6509
H503       H    0.7605577594    0.4425506731   -0.0239828647         -0.3357
H504       H    0.7020059001    0.4406203363   -0.0282271455         -0.3332
H505       H    0.7431252649    0.5468229985    0.0159338056         -0.3273
N506       N    0.6307185198    0.5000000000    0.0000000000         -0.3333
C461       C    1.1307185198    0.5000000000    0.0000000000         -0.3323
C462       C    1.1497173343    0.5235067272   -0.0152260414         -0.3382
C463       C    1.1832312776    0.5192515798   -0.0190025228          0.6569
C464       C    1.2009895785    0.4917110454   -0.0073191726          0.6583
C465       C    1.1805380876    0.4681578266    0.0075648007          -0.336
C466       C    1.1467406311    0.4719803068    0.0110355605         -0.3316
C467       C    1.2361448704    0.4875562008   -0.0090324367          0.6553
H468       H    1.1937138690    0.5409514008   -0.0320370768          0.6523
H469       H    1.1381909056    0.5469024742   -0.0248831414         -0.3392
H470       H    1.1325548030    0.4517360072    0.0235769747         -0.3269
H471       H    1.1901669972    0.4445048205    0.0178486708         -0.3346
C472       C    1.2581329537    0.5101213513   -0.0232777644          0.6499
C473       C    1.2923178626    0.5085059922   -0.0214124690          0.6509
C474       C    1.3076312847    0.4834292555   -0.0043370290          0.6578
C475       C    1.2869409133    0.4593049658    0.0081456023         -0.3388
C476       C    1.2527637141    0.4610317015    0.0056160929          0.6597
N477       N    1.3404263966    0.4839363367    0.0015814850         -0.3369
Cl478     Cl    1.3167695950    0.5412473176   -0.0393769734          0.6454
O479       O    1.2488620003    0.5400559905   -0.0330763087          0.6509
H480       H    1.2394422406    0.4404796753    0.0182464765         -0.3357
H481       H    1.2979940999    0.4381433069    0.0222815109         -0.3332
H482       H    1.2568747351    0.5481574036   -0.0112758072         -0.3273
N483       N    1.3692814802    0.5000000000    0.0000000000         -0.3333
C438       C    1.0000000000    0.5000000000   -0.1307185198         -0.3323
C439       C    1.0136732823    0.4755574161   -0.1497173343         -0.3382
C440       C    1.0177171545    0.4795593143   -0.1832312776          0.6569
C441       C    1.0078401235    0.5077980459   -0.2009895785          0.6583
C442       C    0.9945112005    0.5322648926   -0.1805380876          -0.336
C443       C    0.9908004025    0.5286749753   -0.1467406311         -0.3316
C444       C    1.0098186117    0.5118333392   -0.2361448704          0.6553
H445       H    1.0293204457    0.4570616374   -0.1937138690          0.6523
H446       H    1.0217964715    0.4515858838   -0.1381909056         -0.3392
H447       H    0.9795950473    0.5496882747   -0.1325548030         -0.3269
H448       H    0.9857791988    0.5565336963   -0.1901669972         -0.3346
C449       C    1.0225741539    0.4883938102   -0.2581329537          0.6499
C450       C    1.0208172785    0.4901264674   -0.2923178626          0.6509
C451       C    1.0054000501    0.5162554253   -0.3076312847          0.6578
C452       C    0.9945043856    0.5411367824   -0.2869409133         -0.3388
C453       C    0.9969168774    0.5392500081   -0.2527637141          0.6597
N454       N    0.9994611288    0.5161323275   -0.3404263966         -0.3369
Cl455     Cl    1.0366258186    0.4562914578   -0.3167695950          0.6454
O456       O    1.0304154322    0.4578879346   -0.2488620003          0.6509
H457       H    0.9856426489    0.5605761457   -0.2394422406         -0.3357
H458       H    0.9817672288    0.5631686810   -0.2979940999         -0.3332
H459       H    1.0081364543    0.4512139624   -0.2568747351         -0.3273
N460       N    1.0000000000    0.5000000000   -0.3692814802         -0.3333
C415       C    1.0000000000    0.5000000000    0.1307185198         -0.3323
C416       C    1.0272962627    0.4937300239    0.1497173343         -0.3382
C417       C    1.0245890071    0.4887261396    0.1832312776          0.6569
C418       C    0.9947135406    0.4902876160    0.2009895785          0.6583
C419       C    0.9674905601    0.4962202469    0.1805380876          -0.336
C420       C    0.9698957734    0.5007888876    0.1467406311         -0.3316
C421       C    0.9913950179    0.4872568710    0.2361448704          0.6553
H422       H    1.0494379036    0.4838976647    0.1937138690          0.6523
H423       H    1.0525839195    0.4926553270    0.1381909056         -0.3392
H424       H    0.9465832858    0.5056516705    0.1325548030         -0.3269
H425       H    0.9417468267    0.4977959598    0.1901669972         -0.3346
C426       C    1.0174711070    0.4815865135    0.2581329537          0.6499
C427       C    1.0153152832    0.4827869866    0.2923178626          0.6509
C428       C    0.9859112484    0.4902580047    0.3076312847          0.6578
C429       C    0.9589727689    0.4937387742    0.2869409133         -0.3388
C430       C    0.9614603851    0.4919522134    0.2527637141          0.6597
N431       N    0.9843639079    0.4959931313    0.3404263966         -0.3369
Cl432     Cl    1.0522258811    0.4771014281    0.3167695950          0.6454
O433       O    1.0489518397    0.4826148926    0.2488620003          0.6509
H434       H    0.9378282982    0.4967933743    0.2394422406         -0.3357
H435       H    0.9342529810    0.4997862369    0.2979940999         -0.3332
H436       H    1.0491101299    0.5058714982    0.2568747351         -0.3273
N437       N    1.0000000000    0.5000000000    0.3692814802         -0.3333
C392       C    1.0000000000   -0.1307185198    0.5000000000         -0.3323
C393       C    0.9937300239   -0.1497173343    0.4727037373         -0.3382
C394       C    0.9887261396   -0.1832312776    0.4754109929          0.6569
C395       C    0.9902876160   -0.2009895785    0.5052864594          0.6583
C396       C    0.9962202469   -0.1805380876    0.5325094399          -0.336
C397       C    1.0007888876   -0.1467406311    0.5301042266         -0.3316
C398       C    0.9872568710   -0.2361448704    0.5086049821          0.6553
H399       H    0.9838976647   -0.1937138690    0.4505620964          0.6523
H400       H    0.9926553270   -0.1381909056    0.4474160805         -0.3392
H401       H    1.0056516705   -0.1325548030    0.5534167142         -0.3269
H402       H    0.9977959598   -0.1901669972    0.5582531733         -0.3346
C403       C    0.9815865135   -0.2581329537    0.4825288930          0.6499
C404       C    0.9827869866   -0.2923178626    0.4846847168          0.6509
C405       C    0.9902580047   -0.3076312847    0.5140887516          0.6578
C406       C    0.9937387742   -0.2869409133    0.5410272311         -0.3388
C407       C    0.9919522134   -0.2527637141    0.5385396149          0.6597
N408       N    0.9959931313   -0.3404263966    0.5156360921         -0.3369
Cl409     Cl    0.9771014281   -0.3167695950    0.4477741189          0.6454
O410       O    0.9826148926   -0.2488620003    0.4510481603          0.6509
H411       H    0.9967933743   -0.2394422406    0.5621717018         -0.3357
H412       H    0.9997862369   -0.2979940999    0.5657470190         -0.3332
H413       H    1.0058714982   -0.2568747351    0.4508898701         -0.3273
N414       N    1.0000000000   -0.3692814802    0.5000000000         -0.3333
C369       C    1.0000000000    0.1307185198    0.5000000000         -0.3323
C370       C    0.9943305125    0.1497173343    0.5274272760         -0.3382
C371       C    0.9892684260    0.1832312776    0.5248304756          0.6569
C372       C    0.9901739506    0.2009895785    0.4949279384          0.6583
C373       C    0.9955077823    0.1805380876    0.4675813295          -0.336
C374       C    1.0001281019    0.1467406311    0.4698857112         -0.3316
C375       C    0.9870711150    0.2361448704    0.4916767203          0.6553
H376       H    0.9849863885    0.1937138690    0.5497793430          0.6523
H377       H    0.9938109771    0.1381909056    0.5527324266         -0.3392
H378       H    1.0044781535    0.1325548030    0.4464721299         -0.3269
H379       H    0.9965182050    0.1901669972    0.4418092181         -0.3346
C380       C    0.9819743266    0.2581329537    0.5178709587          0.6499
C381       C    0.9831272041    0.2923178626    0.5156893113          0.6509
C382       C    0.9899511923    0.3076312847    0.4861284155          0.6578
C383       C    0.9928399959    0.2869409133    0.4591200418         -0.3388
C384       C    0.9911084526    0.2527637141    0.4616462626          0.6597
N385       N    0.9956509836    0.3404263966    0.4844555981         -0.3369
Cl386     Cl    0.9782529668    0.3167695950    0.5527157832          0.6454
O387       O    0.9836932593    0.2488620003    0.5493215448          0.6509
H388       H    0.9954298742    0.2394422406    0.4379136335         -0.3357
H389       H    0.9983435608    0.2979940999    0.4342735030         -0.3332
H390       H    1.0069477384    0.2568747351    0.5489694628         -0.3273
N391       N    1.0000000000    0.3692814802    0.5000000000         -0.3333
C346       C    0.6307185198   -0.0000000000    0.5000000000         -0.3323
C347       C    0.6497173343   -0.0043698811    0.5276641049         -0.3382
C348       C    0.6832312776    0.0012828225    0.5270198735          0.6569
C349       C    0.7009895785    0.0109835748    0.4987201013          0.6583
C350       C    0.6805380876    0.0156390800    0.4712498801          -0.336
C351       C    0.6467406311    0.0105028959    0.4717763224         -0.3316
C352       C    0.7361448704    0.0150338162    0.4967723970          0.6553
H353       H    0.6937138690   -0.0035110666    0.5518754656          0.6523
H354       H    0.6381909056   -0.0128100904    0.5515258615         -0.3392
H355       H    0.6325548030    0.0146915734    0.4483333337         -0.3269
H356       H    0.6901669972    0.0237846766    0.4467780200         -0.3346
C357       C    0.7581329537    0.0105630020    0.5230807074          0.6499
C358       C    0.7923178626    0.0102538059    0.5206326245          0.6509
C359       C    0.8076312847    0.0142960302    0.4905648046          0.6578
C360       C    0.7869409133    0.0211200810    0.4642735557         -0.3388
C361       C    0.7527637141    0.0218491977    0.4672481856          0.6597
N362       N    0.8404263966    0.0095527149    0.4869889273         -0.3369
Cl363     Cl    0.8167695950    0.0017536949    0.5569983491          0.6454
O364       O    0.7488620003   -0.0021395745    0.5519032445          0.6509
H365       H    0.7394422406    0.0261772084    0.4435167572         -0.3357
H366       H    0.7979940999    0.0247348684    0.4390828227         -0.3332
H367       H    0.7568747351   -0.0237750189    0.5433708177         -0.3273
N368       N    0.8692814802   -0.0000000000    0.5000000000         -0.3333
C323       C    1.3692814802   -0.0000000000    0.5000000000         -0.3323
C324       C    1.3502826657    0.0139280944    0.5242982869         -0.3382
C325       C    1.3167687224    0.0084161485    0.5257077351          0.6569
C326       C    1.2990104215   -0.0107200780    0.5027123760          0.6583
C327       C    1.3194619124   -0.0248461072    0.4786969210          -0.336
C328       C    1.3532593689   -0.0198587863    0.4773611968         -0.3316
C329       C    1.2638551296   -0.0151982934    0.5023334373          0.6553
H330       H    1.3062861310    0.0217410896    0.5472304620          0.6523
H331       H    1.3618090944    0.0303070243    0.5435946911         -0.3392
H332       H    1.3674451970   -0.0321154571    0.4569432450         -0.3269
H333       H    1.3098330028   -0.0411668136    0.4587255108         -0.3346
C334       C    1.2418670463   -0.0016583310    0.5253287585          0.6499
C335       C    1.2076821374   -0.0022405223    0.5229308916          0.6509
C336       C    1.1923687153   -0.0167177675    0.4962696324          0.6578
C337       C    1.2130590867   -0.0324508602    0.4741276534         -0.3388
C338       C    1.2472362859   -0.0320737315    0.4771670296          0.6597
N339       N    1.1595736034   -0.0135574068    0.4912399147         -0.3369
Cl340     Cl    1.1832304050    0.0186439160    0.5538914803          0.6454
O341       O    1.2511379997    0.0204692559    0.5477444671          0.6509
H342       H    1.2605577594   -0.0445632562    0.4565290999         -0.3357
H343       H    1.2020059001   -0.0447931392    0.4518721402         -0.3332
H344       H    1.2431252649    0.0376522593    0.5320715875         -0.3273
N345       N    1.1307185198   -0.0000000000    0.5000000000         -0.3333
C300       C    0.0000000000   -0.1307185198   -0.0000000000         -0.3323
C301       C    0.0269405195   -0.1497173343   -0.0076555189         -0.3382
C302       C    0.0239813015   -0.1832312776   -0.0125146465          0.6569
C303       C   -0.0057754690   -0.2009895785   -0.0094297939          0.6583
C304       C   -0.0326600263   -0.1805380876   -0.0021149219          -0.336
C305       C   -0.0300246799   -0.1467406311    0.0023249517         -0.3316
C306       C   -0.0092444100   -0.2361448704   -0.0122871451          0.6553
H307       H    0.0485512487   -0.1937138690   -0.0186055842          0.6523
H308       H    0.0521403190   -0.1381909056   -0.0100199776         -0.3392
H309       H   -0.0530584705   -0.1325548030    0.0083717051         -0.3269
H310       H   -0.0582897262   -0.1901669972    0.0007731862         -0.3346
C311       C    0.0165081433   -0.2581329537   -0.0192815267          0.6499
C312       C    0.0144164264   -0.2923178626   -0.0179725452          0.6509
C313       C   -0.0145677917   -0.3076312847   -0.0090099299          0.6578
C314       C   -0.0412934089   -0.2869409133   -0.0041582476         -0.3388
C315       C   -0.0389002575   -0.2527637141   -0.0060694933          0.6597
N316       N   -0.0158202839   -0.3404263966   -0.0032032783         -0.3369
Cl317     Cl    0.0509885803   -0.3167695950   -0.0255353075          0.6454
O318       O    0.0480003217   -0.2488620003   -0.0198618652          0.6509
H319       H   -0.0622543346   -0.2394422406   -0.0000280153         -0.3357
H320       H   -0.0656721755   -0.2979940999    0.0031434959         -0.3332
H321       H    0.0493458656   -0.2568747351    0.0033563232         -0.3273
N322       N   -0.0000000000   -0.3692814802    0.0000000000         -0.3333
C277       C   -0.0000000000    0.3692814802    0.0000000000         -0.3323
C278       C    0.0180267307    0.3502826657   -0.0214344475         -0.3382
C279       C    0.0128532441    0.3167687224   -0.0238015402          0.6569
C280       C   -0.0100669419    0.2990104215   -0.0045753399          0.6583
C281       C   -0.0282381614    0.3194619124    0.0165455872          -0.336
C282       C   -0.0235678302    0.3532593689    0.0187468446         -0.3316
C283       C   -0.0145411733    0.2638551296   -0.0049987329          0.6553
H284       H    0.0297928977    0.3062861310   -0.0426119087          0.6523
H285       H    0.0375758316    0.3618090944   -0.0375109277         -0.3392
H286       H   -0.0392597921    0.3674451970    0.0366599981         -0.3269
H287       H   -0.0478499928    0.3098330028    0.0332966694         -0.3346
C288       C    0.0028719241    0.2418670463   -0.0252199944          0.6499
C289       C    0.0018726344    0.2076821374   -0.0229638623          0.6509
C290       C   -0.0171146672    0.1923687153    0.0006982541          0.6578
C291       C   -0.0365342082    0.2130590867    0.0196898012         -0.3388
C292       C   -0.0356226434    0.2472362859    0.0167659196          0.6597
N293       N   -0.0148990283    0.1595736034    0.0062097769         -0.3369
Cl294     Cl    0.0279295083    0.1832304050   -0.0497175001          0.6454
O295       O    0.0286327296    0.2511379997   -0.0433438734          0.6509
H296       H   -0.0515828639    0.2605577594    0.0348541405         -0.3357
H297       H   -0.0526371598    0.2020059001    0.0393960101         -0.3332
H298       H    0.0427550344    0.2431252649   -0.0248653652         -0.3273
N299       N   -0.0000000000    0.1307185198    0.0000000000         -0.3333
C254       C   -0.1307185198   -0.0000000000    0.0000000000         -0.3323
C255       C   -0.1497173343   -0.0060203950   -0.0273523930         -0.3382
C256       C   -0.1832312776   -0.0003392378   -0.0270481814          0.6569
C257       C   -0.2009895785    0.0110405474    0.0006191675          0.6583
C258       C   -0.1805380876    0.0173344302    0.0277609032          -0.336
C259       C   -0.1467406311    0.0121759246    0.0275433052         -0.3316
C260       C   -0.2361448704    0.0152002634    0.0023205702          0.6553
H261       H   -0.1937138690   -0.0066145171   -0.0515716946          0.6523
H262       H   -0.1381909056   -0.0158758597   -0.0506652731         -0.3392
H263       H   -0.1325548030    0.0177623998    0.0506930359         -0.3269
H264       H   -0.1901669972    0.0269323857    0.0517004506         -0.3346
C265       C   -0.2581329537    0.0091603922   -0.0236724161          0.6499
C266       C   -0.2923178626    0.0089985067   -0.0212102006          0.6509
C267       C   -0.3076312847    0.0148359291    0.0085612266          0.6578
C268       C   -0.2869409133    0.0232237819    0.0343961131         -0.3388
C269       C   -0.2527637141    0.0237732680    0.0313831247          0.6597
N270       N   -0.3404263966    0.0103155064    0.0124150192         -0.3369
Cl271     Cl   -0.3167695950   -0.0016663240   -0.0570009703          0.6454
O272       O   -0.2488620003   -0.0052471567   -0.0516816400          0.6509
H273       H   -0.2394422406    0.0295161168    0.0548124239         -0.3357
H274       H   -0.2979940999    0.0283421706    0.0593248478         -0.3332
H275       H   -0.2568747351   -0.0263322003   -0.0418675839         -0.3273
N276       N   -0.3692814802   -0.0000000000    0.0000000000         -0.3333
C231       C    0.3692814802   -0.0000000000    0.0000000000         -0.3323
C232       C    0.3502826657   -0.0144124148    0.0240141804         -0.3382
C233       C    0.3167687224   -0.0183323486    0.0198908067          0.6569
C234       C    0.2990104215   -0.0075986373   -0.0080335401          0.6583
C235       C    0.3194619124    0.0064703183   -0.0320824749          -0.336
C236       C    0.3532593689    0.0100698983   -0.0283810492         -0.3316
C237       C    0.2638551296   -0.0094531295   -0.0121272996          0.6553
H238       H    0.3062861310   -0.0306164160    0.0420241191          0.6523
H239       H    0.3618090944   -0.0232629515    0.0477268049         -0.3392
H240       H    0.3674451970    0.0219109416   -0.0490428117         -0.3269
H241       H    0.3098330028    0.0159384510   -0.0560736638         -0.3346
C242       C    0.2418670463   -0.0229176382    0.0109122834          0.6499
C243       C    0.2076821374   -0.0211087344    0.0092340166          0.6509
C244       C    0.1923687153   -0.0049017509   -0.0164125632          0.6578
C245       C    0.2130590867    0.0067477209   -0.0409500294         -0.3388
C246       C    0.2472362859    0.0042788052   -0.0391377134          0.6597
N247       N    0.1595736034    0.0010306531   -0.0161083869         -0.3369
Cl248     Cl    0.1832304050   -0.0379418806    0.0425711281          0.6454
O249       O    0.2511379997   -0.0316856912    0.0411648095          0.6509
H250       H    0.2605577594    0.0161982313   -0.0601100679         -0.3357
H251       H    0.2020059001    0.0201509202   -0.0625831976         -0.3332
H252       H    0.2431252649   -0.0096206328    0.0485151809         -0.3273
N253       N    0.1307185198   -0.0000000000    0.0000000000         -0.3333
C208       C   -0.0000000000    0.0000000000   -0.1307185198         -0.3323
C209       C    0.0062370937   -0.0273037950   -0.1497173343         -0.3382
C210       C    0.0112442352   -0.0246025684   -0.1832312776          0.6569
C211       C    0.0097187444    0.0052747571   -0.2009895785          0.6583
C212       C    0.0038189074    0.0325048637   -0.1805380876          -0.336
C213       C   -0.0007526270    0.0301051550   -0.1467406311         -0.3316
C214       C    0.0127534843    0.0085896269   -0.2361448704          0.6553
H215       H    0.0160427766   -0.0494572627   -0.1937138690          0.6523
H216       H    0.0072813312   -0.0525927279   -0.1381909056         -0.3392
H217       H   -0.0055873269    0.0534234828   -0.1325548030         -0.3269
H218       H    0.0022742035    0.0582504764   -0.1901669972         -0.3346
C219       C    0.0183924295   -0.0174932731   -0.2581329537          0.6499
C220       C    0.0171945540   -0.0153360049   -0.2923178626          0.6509
C221       C    0.0097589578    0.0140770073   -0.3076312847          0.6578
C222       C    0.0063106378    0.0410196599   -0.2869409133         -0.3388
C223       C    0.0080942010    0.0385298935   -0.2527637141          0.6597
N224       N    0.0040256992    0.0156312546   -0.3404263966         -0.3369
Cl225     Cl    0.0228356501   -0.0522534241   -0.3167695950          0.6454
O226       O    0.0173261332   -0.0489727443   -0.2488620003          0.6509
H227       H    0.0032815081    0.0621677944   -0.2394422406         -0.3357
H228       H    0.0002929540    0.0657467138   -0.2979940999         -0.3332
H229       H   -0.0059306462   -0.0491030222   -0.2568747351         -0.3273
N230       N   -0.0000000000    0.0000000000   -0.3692814802         -0.3333
C185       C    0.0000000000    0.0000000000    0.1307185198         -0.3323
C186       C   -0.0150910602   -0.0235936106    0.1497173343         -0.3382
C187       C   -0.0188918684   -0.0193601783    0.1832312776          0.6569
C188       C   -0.0073665613    0.0082468679    0.2009895785          0.6583
C189       C    0.0073821700    0.0318850087    0.1805380876          -0.336
C190       C    0.0108747817    0.0280824843    0.1467406311         -0.3316
C191       C   -0.0091036112    0.0123918245    0.2361448704          0.6553
H192       H   -0.0318018337   -0.0411343517    0.1937138690          0.6523
H193       H   -0.0246139067   -0.0470443239    0.1381909056         -0.3392
H194       H    0.0232999578    0.0483983337    0.1325548030         -0.3269
H195       H    0.0175303017    0.0555965693    0.1901669972         -0.3346
C196       C   -0.0232193705   -0.0102546038    0.2581329537          0.6499
C197       C   -0.0213633643   -0.0086285801    0.2923178626          0.6509
C198       C   -0.0044319345    0.0165456142    0.3076312847          0.6578
C199       C    0.0079122211    0.0407410530    0.2869409133         -0.3388
C200       C    0.0053926502    0.0389998475    0.2527637141          0.6597
N201       N    0.0014893886    0.0160724639    0.3404263966         -0.3369
Cl202     Cl   -0.0391399137   -0.0414723330    0.3167695950          0.6454
O203       O   -0.0328461806   -0.0402449126    0.2488620003          0.6509
H204       H    0.0179050303    0.0596239285    0.2394422406         -0.3357
H205       H    0.0219266074    0.0619833856    0.2979940999         -0.3332
H206       H   -0.0109996032   -0.0482212410    0.2568747351         -0.3273
N207       N    0.0000000000    0.0000000000    0.3692814802         -0.3333
loop_
_geom_bond_atom_site_label_1
_geom_bond_atom_site_label_2
_geom_bond_distance
_geom_bond_site_symmetry_2
_ccdc_geom_bond_type
Zn1          O5 1.942       .   S
Zn1          O6 1.922       .   S
Zn1         O10 1.922       .   S
Zn1         O17 1.922       .   S
Zn2          O5 1.942       .   S
Zn2          O7 1.922       .   S
Zn2          O9 1.922       .   S
Zn2         O13 1.922       .   S
Zn3          O5 1.942       .   S
Zn3          O8 1.922       .   S
Zn3         O11 1.922       .   S
Zn3         O14 1.922       .   S
Zn4          O5 1.942       .   S
Zn4         O12 1.922       .   S
Zn4         O15 1.922       .   S
Zn4         O16 1.922       .   S
O6          C18 1.304       .   A
O7          C19 1.304       .   A
O8          C20 1.304       .   A
O9          C18 1.304       .   A
O10         C20 1.304       .   A
O11         C19 1.304       .   A
O12         C21 1.304       .   A
O13         C22 1.304       .   A
O14         C21 1.304       .   A
O15         C22 1.304       .   A
O16         C23 1.304       .   A
O17         C23 1.304       .   A
C18        C300 1.540       .   S
C19        C254 1.540       .   S
C20        C185 1.540       .   S
C21        N299 1.540       .   S
C22        C208 1.540       .   S
C23        N253 1.540       .   S
Zn24        O28 1.942       .   S
Zn24        O29 1.922       .   S
Zn24        O33 1.922       .   S
Zn24        O40 1.922       .   S
Zn25        O28 1.942       .   S
Zn25        O30 1.922       .   S
Zn25        O32 1.922       .   S
Zn25        O36 1.922       .   S
Zn26        O28 1.942       .   S
Zn26        O31 1.922       .   S
Zn26        O34 1.922       .   S
Zn26        O37 1.922       .   S
Zn27        O28 1.942       .   S
Zn27        O35 1.922       .   S
Zn27        O38 1.922       .   S
Zn27        O39 1.922       .   S
O29         C41 1.304       .   A
O30         C42 1.304       .   A
O31         C43 1.304       .   A
O32         C41 1.304       .   A
O33         C43 1.304       .   A
O34         C42 1.304       .   A
O35         C44 1.304       .   A
O36         C45 1.304       .   A
O37         C44 1.304       .   A
O38         C45 1.304       .   A
O39         C46 1.304       .   A
O40         C46 1.304       .   A
C41        N207 1.540   1_655   S
C42        N345 1.540       .   S
C43        C369 1.540       .   S
C44        N230 1.540   1_656   S
C45        C392 1.540       .   S
C46        N368 1.540       .   S
Zn47        O51 1.942       .   S
Zn47        O52 1.922       .   S
Zn47        O56 1.922       .   S
Zn47        O63 1.922       .   S
Zn48        O51 1.942       .   S
Zn48        O53 1.922       .   S
Zn48        O55 1.922       .   S
Zn48        O59 1.922       .   S
Zn49        O51 1.942       .   S
Zn49        O54 1.922       .   S
Zn49        O57 1.922       .   S
Zn49        O60 1.922       .   S
Zn50        O51 1.942       .   S
Zn50        O58 1.922       .   S
Zn50        O61 1.922       .   S
Zn50        O62 1.922       .   S
O52         C64 1.304       .   A
O53         C65 1.304       .   A
O54         C66 1.304       .   A
O55         C64 1.304       .   A
O56         C66 1.304       .   A
O57         C65 1.304       .   A
O58         C67 1.304       .   A
O59         C68 1.304       .   A
O60         C67 1.304       .   A
O61         C68 1.304       .   A
O62         C69 1.304       .   A
O63         C69 1.304       .   A
C64        C277 1.540   1_655   S
C65        C484 1.540       .   S
C66        C415 1.540       .   S
C67        N322 1.540   1_665   S
C68        C438 1.540       .   S
C69        C461 1.540       .   S
Zn70        O74 1.942       .   S
Zn70        O75 1.922       .   S
Zn70        O79 1.922       .   S
Zn70        O86 1.922       .   S
Zn71        O74 1.942       .   S
Zn71        O76 1.922       .   S
Zn71        O78 1.922       .   S
Zn71        O82 1.922       .   S
Zn72        O74 1.942       .   S
Zn72        O77 1.922       .   S
Zn72        O80 1.922       .   S
Zn72        O83 1.922       .   S
Zn73        O74 1.942       .   S
Zn73        O81 1.922       .   S
Zn73        O84 1.922       .   S
Zn73        O85 1.922       .   S
O75         C87 1.304       .   A
O76         C88 1.304       .   A
O77         C89 1.304       .   A
O78         C87 1.304       .   A
O79         C89 1.304       .   A
O80         C88 1.304       .   A
O81         C90 1.304       .   A
O82         C91 1.304       .   A
O83         C90 1.304       .   A
O84         C91 1.304       .   A
O85         C92 1.304       .   A
O86         C92 1.304       .   A
C87        N391 1.540       .   S
C88        N437 1.540       .   S
C89        C530 1.540       .   S
C90        N414 1.540   1_565   S
C91        C507 1.540       .   S
C92        N460 1.540   1_556   S
Zn93        O97 1.942       .   S
Zn93        O98 1.922       .   S
Zn93       O102 1.922       .   S
Zn93       O109 1.922       .   S
Zn94        O97 1.942       .   S
Zn94        O99 1.922       .   S
Zn94       O101 1.922       .   S
Zn94       O105 1.922       .   S
Zn95        O97 1.942       .   S
Zn95       O100 1.922       .   S
Zn95       O103 1.922       .   S
Zn95       O106 1.922       .   S
Zn96        O97 1.942       .   S
Zn96       O104 1.922       .   S
Zn96       O107 1.922       .   S
Zn96       O108 1.922       .   S
O98        C110 1.304       .   A
O99        C111 1.304       .   A
O100       C112 1.304       .   A
O101       C110 1.304       .   A
O102       C112 1.304       .   A
O103       C111 1.304       .   A
O104       C113 1.304       .   A
O105       C114 1.304       .   A
O106       C113 1.304       .   A
O107       C114 1.304       .   A
O108       C115 1.304       .   A
O109       C115 1.304       .   A
C110       C231 1.540   1_565   S
C111       N575 1.540       .   S
C112       C622 1.540       .   S
C113       N276 1.540   1_665   S
C114       N621 1.540       .   S
C115       N598 1.540       .   S
Zn116      O120 1.942       .   S
Zn116      O121 1.922       .   S
Zn116      O125 1.922       .   S
Zn116      O132 1.922       .   S
Zn117      O120 1.942       .   S
Zn117      O122 1.922       .   S
Zn117      O124 1.922       .   S
Zn117      O128 1.922       .   S
Zn118      O120 1.942       .   S
Zn118      O123 1.922       .   S
Zn118      O126 1.922       .   S
Zn118      O129 1.922       .   S
Zn119      O120 1.942       .   S
Zn119      O127 1.922       .   S
Zn119      O130 1.922       .   S
Zn119      O131 1.922       .   S
O121       C133 1.304       .   A
O122       C134 1.304       .   A
O123       C135 1.304       .   A
O124       C133 1.304       .   A
O125       C135 1.304       .   A
O126       C134 1.304       .   A
O127       C136 1.304       .   A
O128       C137 1.304       .   A
O129       C136 1.304       .   A
O130       C137 1.304       .   A
O131       C138 1.304       .   A
O132       C138 1.304       .   A
C133       C668 1.540       .   S
C134       C323 1.540   1_465   S
C135       C576 1.540   1_556   S
C136       C645 1.540       .   S
C137       C553 1.540       .   S
C138       C346 1.540   1_565   S
Zn139      O143 1.942       .   S
Zn139      O144 1.922       .   S
Zn139      O148 1.922       .   S
Zn139      O155 1.922       .   S
Zn140      O143 1.942       .   S
Zn140      O145 1.922       .   S
Zn140      O147 1.922       .   S
Zn140      O151 1.922       .   S
Zn141      O143 1.942       .   S
Zn141      O146 1.922       .   S
Zn141      O149 1.922       .   S
Zn141      O152 1.922       .   S
Zn142      O143 1.942       .   S
Zn142      O150 1.922       .   S
Zn142      O153 1.922       .   S
Zn142      O154 1.922       .   S
O144       C156 1.304       .   A
O145       C157 1.304       .   A
O146       C158 1.304       .   A
O147       C156 1.304       .   A
O148       C158 1.304       .   A
O149       C157 1.304       .   A
O150       C159 1.304       .   A
O151       C160 1.304       .   A
O152       C159 1.304       .   A
O153       C160 1.304       .   A
O154       C161 1.304       .   A
O155       C161 1.304       .   A
C156       N483 1.540   1_455   S
C157       C599 1.540   1_545   S
C158       C714 1.540       .   S
C159       N506 1.540       .   S
C160       N713 1.540       .   S
C161       N644 1.540       .   S
Zn162      O166 1.942       .   S
Zn162      O167 1.922       .   S
Zn162      O171 1.922       .   S
Zn162      O178 1.922       .   S
Zn163      O166 1.942       .   S
Zn163      O168 1.922       .   S
Zn163      O170 1.922       .   S
Zn163      O174 1.922       .   S
Zn164      O166 1.942       .   S
Zn164      O169 1.922       .   S
Zn164      O172 1.922       .   S
Zn164      O175 1.922       .   S
Zn165      O166 1.942       .   S
Zn165      O173 1.922       .   S
Zn165      O176 1.922       .   S
Zn165      O177 1.922       .   S
O167       C179 1.304       .   A
O168       C180 1.304       .   A
O169       C181 1.304       .   A
O170       C179 1.304       .   A
O171       C181 1.304       .   A
O172       C180 1.304       .   A
O173       C182 1.304       .   A
O174       C183 1.304       .   A
O175       C182 1.304       .   A
O176       C183 1.304       .   A
O177       C184 1.304       .   A
O178       C184 1.304       .   A
C179       N529 1.540   1_455   S
C180       N667 1.540   1_545   S
C181       C691 1.540       .   S
C182       N552 1.540       .   S
C183       N736 1.540   1_556   S
C184       N690 1.540       .   S
C714       C715 0.032       .   A
C714       C719 0.032       .   A
C715       C716 0.032       .   A
C715       H722 0.026       .   A
C716       C717 0.033       .   A
C716       H721 0.026       .   A
C717       C718 0.032       .   A
C717       C720 0.033       .   A
C718       C719 0.032       .   A
C718       H724 0.026       .   A
C719       H723 0.026       .   A
C720       C725 0.033       .   A
C720       C729 0.032       .   A
C725       C726 0.032       .   A
C725       O732 0.031       .   A
C726       C727 0.032       .   A
C726      Cl731 0.042       .   A
C727       C728 0.032       .   A
C727       N730 0.031       .   A
C728       C729 0.032       .   A
C728       H734 0.026       .   A
C729       H733 0.026       .   A
N730       N736 0.031       .   A
O732       H735 0.023       .   A
C691       C692 0.032       .   A
C691       C696 0.032       .   A
C692       C693 0.032       .   A
C692       H699 0.026       .   A
C693       C694 0.033       .   A
C693       H698 0.026       .   A
C694       C695 0.032       .   A
C694       C697 0.033       .   A
C695       C696 0.032       .   A
C695       H701 0.026       .   A
C696       H700 0.026       .   A
C697       C702 0.033       .   A
C697       C706 0.032       .   A
C702       C703 0.032       .   A
C702       O709 0.031       .   A
C703       C704 0.032       .   A
C703      Cl708 0.042       .   A
C704       C705 0.032       .   A
C704       N707 0.031       .   A
C705       C706 0.032       .   A
C705       H711 0.026       .   A
C706       H710 0.026       .   A
N707       N713 0.031       .   A
O709       H712 0.023       .   A
C668       C669 0.032       .   A
C668       C673 0.032       .   A
C669       C670 0.032       .   A
C669       H676 0.026       .   A
C670       C671 0.033       .   A
C670       H675 0.026       .   A
C671       C672 0.032       .   A
C671       C674 0.033       .   A
C672       C673 0.032       .   A
C672       H678 0.026       .   A
C673       H677 0.026       .   A
C674       C679 0.033       .   A
C674       C683 0.032       .   A
C679       C680 0.032       .   A
C679       O686 0.031       .   A
C680       C681 0.032       .   A
C680      Cl685 0.042       .   A
C681       C682 0.032       .   A
C681       N684 0.031       .   A
C682       C683 0.032       .   A
C682       H688 0.026       .   A
C683       H687 0.026       .   A
N684       N690 0.031       .   A
O686       H689 0.023       .   A
C645       C646 0.032       .   A
C645       C650 0.032       .   A
C646       C647 0.032       .   A
C646       H653 0.026       .   A
C647       C648 0.033       .   A
C647       H652 0.026       .   A
C648       C649 0.032       .   A
C648       C651 0.033       .   A
C649       C650 0.032       .   A
C649       H655 0.026       .   A
C650       H654 0.026       .   A
C651       C656 0.033       .   A
C651       C660 0.032       .   A
C656       C657 0.032       .   A
C656       O663 0.031       .   A
C657       C658 0.032       .   A
C657      Cl662 0.042       .   A
C658       C659 0.032       .   A
C658       N661 0.031       .   A
C659       C660 0.032       .   A
C659       H665 0.026       .   A
C660       H664 0.026       .   A
N661       N667 0.031       .   A
O663       H666 0.023       .   A
C622       C623 0.032       .   A
C622       C627 0.032       .   A
C623       C624 0.032       .   A
C623       H630 0.026       .   A
C624       C625 0.033       .   A
C624       H629 0.026       .   A
C625       C626 0.032       .   A
C625       C628 0.033       .   A
C626       C627 0.032       .   A
C626       H632 0.026       .   A
C627       H631 0.026       .   A
C628       C633 0.033       .   A
C628       C637 0.032       .   A
C633       C634 0.032       .   A
C633       O640 0.031       .   A
C634       C635 0.032       .   A
C634      Cl639 0.042       .   A
C635       C636 0.032       .   A
C635       N638 0.031       .   A
C636       C637 0.032       .   A
C636       H642 0.026       .   A
C637       H641 0.026       .   A
N638       N644 0.031       .   A
O640       H643 0.023       .   A
C599       C600 0.032       .   A
C599       C604 0.032       .   A
C600       C601 0.032       .   A
C600       H607 0.026       .   A
C601       C602 0.033       .   A
C601       H606 0.026       .   A
C602       C603 0.032       .   A
C602       C605 0.033       .   A
C603       C604 0.032       .   A
C603       H609 0.026       .   A
C604       H608 0.026       .   A
C605       C610 0.033       .   A
C605       C614 0.032       .   A
C610       C611 0.032       .   A
C610       O617 0.031       .   A
C611       C612 0.032       .   A
C611      Cl616 0.042       .   A
C612       C613 0.032       .   A
C612       N615 0.031       .   A
C613       C614 0.032       .   A
C613       H619 0.026       .   A
C614       H618 0.026       .   A
N615       N621 0.031       .   A
O617       H620 0.023       .   A
C576       C577 0.032       .   A
C576       C581 0.032       .   A
C577       C578 0.032       .   A
C577       H584 0.026       .   A
C578       C579 0.033       .   A
C578       H583 0.026       .   A
C579       C580 0.032       .   A
C579       C582 0.033       .   A
C580       C581 0.032       .   A
C580       H586 0.026       .   A
C581       H585 0.026       .   A
C582       C587 0.033       .   A
C582       C591 0.032       .   A
C587       C588 0.032       .   A
C587       O594 0.031       .   A
C588       C589 0.032       .   A
C588      Cl593 0.042       .   A
C589       C590 0.032       .   A
C589       N592 0.031       .   A
C590       C591 0.032       .   A
C590       H596 0.026       .   A
C591       H595 0.026       .   A
N592       N598 0.031       .   A
O594       H597 0.023       .   A
C553       C554 0.032       .   A
C553       C558 0.032       .   A
C554       C555 0.032       .   A
C554       H561 0.026       .   A
C555       C556 0.033       .   A
C555       H560 0.026       .   A
C556       C557 0.032       .   A
C556       C559 0.033       .   A
C557       C558 0.032       .   A
C557       H563 0.026       .   A
C558       H562 0.026       .   A
C559       C564 0.033       .   A
C559       C568 0.032       .   A
C564       C565 0.032       .   A
C564       O571 0.031       .   A
C565       C566 0.032       .   A
C565      Cl570 0.042       .   A
C566       C567 0.032       .   A
C566       N569 0.031       .   A
C567       C568 0.032       .   A
C567       H573 0.026       .   A
C568       H572 0.026       .   A
N569       N575 0.031       .   A
O571       H574 0.023       .   A
C530       C531 0.032       .   A
C530       C535 0.032       .   A
C531       C532 0.032       .   A
C531       H538 0.026       .   A
C532       C533 0.033       .   A
C532       H537 0.026       .   A
C533       C534 0.032       .   A
C533       C536 0.033       .   A
C534       C535 0.032       .   A
C534       H540 0.026       .   A
C535       H539 0.026       .   A
C536       C541 0.033       .   A
C536       C545 0.032       .   A
C541       C542 0.032       .   A
C541       O548 0.031       .   A
C542       C543 0.032       .   A
C542      Cl547 0.042       .   A
C543       C544 0.032       .   A
C543       N546 0.031       .   A
C544       C545 0.032       .   A
C544       H550 0.026       .   A
C545       H549 0.026       .   A
N546       N552 0.031       .   A
O548       H551 0.023       .   A
C507       C508 0.032       .   A
C507       C512 0.032       .   A
C508       C509 0.032       .   A
C508       H515 0.026       .   A
C509       C510 0.033       .   A
C509       H514 0.026       .   A
C510       C511 0.032       .   A
C510       C513 0.033       .   A
C511       C512 0.032       .   A
C511       H517 0.026       .   A
C512       H516 0.026       .   A
C513       C518 0.033       .   A
C513       C522 0.032       .   A
C518       C519 0.032       .   A
C518       O525 0.031       .   A
C519       C520 0.032       .   A
C519      Cl524 0.042       .   A
C520       C521 0.032       .   A
C520       N523 0.031       .   A
C521       C522 0.032       .   A
C521       H527 0.026       .   A
C522       H526 0.026       .   A
N523       N529 0.031       .   A
O525       H528 0.023       .   A
C484       C485 0.032       .   A
C484       C489 0.032       .   A
C485       C486 0.032       .   A
C485       H492 0.026       .   A
C486       C487 0.033       .   A
C486       H491 0.026       .   A
C487       C488 0.032       .   A
C487       C490 0.033       .   A
C488       C489 0.032       .   A
C488       H494 0.026       .   A
C489       H493 0.026       .   A
C490       C495 0.033       .   A
C490       C499 0.032       .   A
C495       C496 0.032       .   A
C495       O502 0.031       .   A
C496       C497 0.032       .   A
C496      Cl501 0.042       .   A
C497       C498 0.032       .   A
C497       N500 0.031       .   A
C498       C499 0.032       .   A
C498       H504 0.026       .   A
C499       H503 0.026       .   A
N500       N506 0.031       .   A
O502       H505 0.023       .   A
C461       C462 0.032       .   A
C461       C466 0.032       .   A
C462       C463 0.032       .   A
C462       H469 0.026       .   A
C463       C464 0.033       .   A
C463       H468 0.026       .   A
C464       C465 0.032       .   A
C464       C467 0.033       .   A
C465       C466 0.032       .   A
C465       H471 0.026       .   A
C466       H470 0.026       .   A
C467       C472 0.033       .   A
C467       C476 0.032       .   A
C472       C473 0.032       .   A
C472       O479 0.031       .   A
C473       C474 0.032       .   A
C473      Cl478 0.042       .   A
C474       C475 0.032       .   A
C474       N477 0.031       .   A
C475       C476 0.032       .   A
C475       H481 0.026       .   A
C476       H480 0.026       .   A
N477       N483 0.031       .   A
O479       H482 0.023       .   A
C438       C439 0.032       .   A
C438       C443 0.032       .   A
C439       C440 0.032       .   A
C439       H446 0.026       .   A
C440       C441 0.033       .   A
C440       H445 0.026       .   A
C441       C442 0.032       .   A
C441       C444 0.033       .   A
C442       C443 0.032       .   A
C442       H448 0.026       .   A
C443       H447 0.026       .   A
C444       C449 0.033       .   A
C444       C453 0.032       .   A
C449       C450 0.032       .   A
C449       O456 0.031       .   A
C450       C451 0.032       .   A
C450      Cl455 0.042       .   A
C451       C452 0.032       .   A
C451       N454 0.031       .   A
C452       C453 0.032       .   A
C452       H458 0.026       .   A
C453       H457 0.026       .   A
N454       N460 0.031       .   A
O456       H459 0.023       .   A
C415       C416 0.032       .   A
C415       C420 0.032       .   A
C416       C417 0.032       .   A
C416       H423 0.026       .   A
C417       C418 0.033       .   A
C417       H422 0.026       .   A
C418       C419 0.032       .   A
C418       C421 0.033       .   A
C419       C420 0.032       .   A
C419       H425 0.026       .   A
C420       H424 0.026       .   A
C421       C426 0.033       .   A
C421       C430 0.032       .   A
C426       C427 0.032       .   A
C426       O433 0.031       .   A
C427       C428 0.032       .   A
C427      Cl432 0.042       .   A
C428       C429 0.032       .   A
C428       N431 0.031       .   A
C429       C430 0.032       .   A
C429       H435 0.026       .   A
C430       H434 0.026       .   A
N431       N437 0.031       .   A
O433       H436 0.023       .   A
C392       C393 0.032       .   A
C392       C397 0.032       .   A
C393       C394 0.032       .   A
C393       H400 0.026       .   A
C394       C395 0.033       .   A
C394       H399 0.026       .   A
C395       C396 0.032       .   A
C395       C398 0.033       .   A
C396       C397 0.032       .   A
C396       H402 0.026       .   A
C397       H401 0.026       .   A
C398       C403 0.033       .   A
C398       C407 0.032       .   A
C403       C404 0.032       .   A
C403       O410 0.031       .   A
C404       C405 0.032       .   A
C404      Cl409 0.042       .   A
C405       C406 0.032       .   A
C405       N408 0.031       .   A
C406       C407 0.032       .   A
C406       H412 0.026       .   A
C407       H411 0.026       .   A
N408       N414 0.031       .   A
O410       H413 0.023       .   A
C369       C370 0.032       .   A
C369       C374 0.032       .   A
C370       C371 0.032       .   A
C370       H377 0.026       .   A
C371       C372 0.033       .   A
C371       H376 0.026       .   A
C372       C373 0.032       .   A
C372       C375 0.033       .   A
C373       C374 0.032       .   A
C373       H379 0.026       .   A
C374       H378 0.026       .   A
C375       C380 0.033       .   A
C375       C384 0.032       .   A
C380       C381 0.032       .   A
C380       O387 0.031       .   A
C381       C382 0.032       .   A
C381      Cl386 0.042       .   A
C382       C383 0.032       .   A
C382       N385 0.031       .   A
C383       C384 0.032       .   A
C383       H389 0.026       .   A
C384       H388 0.026       .   A
N385       N391 0.031       .   A
O387       H390 0.023       .   A
C346       C347 0.032       .   A
C346       C351 0.032       .   A
C347       C348 0.032       .   A
C347       H354 0.026       .   A
C348       C349 0.033       .   A
C348       H353 0.026       .   A
C349       C350 0.032       .   A
C349       C352 0.033       .   A
C350       C351 0.032       .   A
C350       H356 0.026       .   A
C351       H355 0.026       .   A
C352       C357 0.033       .   A
C352       C361 0.032       .   A
C357       C358 0.032       .   A
C357       O364 0.031       .   A
C358       C359 0.032       .   A
C358      Cl363 0.042       .   A
C359       C360 0.032       .   A
C359       N362 0.031       .   A
C360       C361 0.032       .   A
C360       H366 0.026       .   A
C361       H365 0.026       .   A
N362       N368 0.031       .   A
O364       H367 0.023       .   A
C323       C324 0.032       .   A
C323       C328 0.032       .   A
C324       C325 0.032       .   A
C324       H331 0.026       .   A
C325       C326 0.033       .   A
C325       H330 0.026       .   A
C326       C327 0.032       .   A
C326       C329 0.033       .   A
C327       C328 0.032       .   A
C327       H333 0.026       .   A
C328       H332 0.026       .   A
C329       C334 0.033       .   A
C329       C338 0.032       .   A
C334       C335 0.032       .   A
C334       O341 0.031       .   A
C335       C336 0.032       .   A
C335      Cl340 0.042       .   A
C336       C337 0.032       .   A
C336       N339 0.031       .   A
C337       C338 0.032       .   A
C337       H343 0.026       .   A
C338       H342 0.026       .   A
N339       N345 0.031       .   A
O341       H344 0.023       .   A
C300       C301 0.032       .   A
C300       C305 0.032       .   A
C301       C302 0.032       .   A
C301       H308 0.026       .   A
C302       C303 0.033       .   A
C302       H307 0.026       .   A
C303       C304 0.032       .   A
C303       C306 0.033       .   A
C304       C305 0.032       .   A
C304       H310 0.026       .   A
C305       H309 0.026       .   A
C306       C311 0.033       .   A
C306       C315 0.032       .   A
C311       C312 0.032       .   A
C311       O318 0.031       .   A
C312       C313 0.032       .   A
C312      Cl317 0.042       .   A
C313       C314 0.032       .   A
C313       N316 0.031       .   A
C314       C315 0.032       .   A
C314       H320 0.026       .   A
C315       H319 0.026       .   A
N316       N322 0.031       .   A
O318       H321 0.023       .   A
C277       C278 0.032       .   A
C277       C282 0.032       .   A
C278       C279 0.032       .   A
C278       H285 0.026       .   A
C279       C280 0.033       .   A
C279       H284 0.026       .   A
C280       C281 0.032       .   A
C280       C283 0.033       .   A
C281       C282 0.032       .   A
C281       H287 0.026       .   A
C282       H286 0.026       .   A
C283       C288 0.033       .   A
C283       C292 0.032       .   A
C288       C289 0.032       .   A
C288       O295 0.031       .   A
C289       C290 0.032       .   A
C289      Cl294 0.042       .   A
C290       C291 0.032       .   A
C290       N293 0.031       .   A
C291       C292 0.032       .   A
C291       H297 0.026       .   A
C292       H296 0.026       .   A
N293       N299 0.031       .   A
O295       H298 0.023       .   A
C254       C255 0.032       .   A
C254       C259 0.032       .   A
C255       C256 0.032       .   A
C255       H262 0.026       .   A
C256       C257 0.033       .   A
C256       H261 0.026       .   A
C257       C258 0.032       .   A
C257       C260 0.033       .   A
C258       C259 0.032       .   A
C258       H264 0.026       .   A
C259       H263 0.026       .   A
C260       C265 0.033       .   A
C260       C269 0.032       .   A
C265       C266 0.032       .   A
C265       O272 0.031       .   A
C266       C267 0.032       .   A
C266      Cl271 0.042       .   A
C267       C268 0.032       .   A
C267       N270 0.031       .   A
C268       C269 0.032       .   A
C268       H274 0.026       .   A
C269       H273 0.026       .   A
N270       N276 0.031       .   A
O272       H275 0.023       .   A
C231       C232 0.032       .   A
C231       C236 0.032       .   A
C232       C233 0.032       .   A
C232       H239 0.026       .   A
C233       C234 0.033       .   A
C233       H238 0.026       .   A
C234       C235 0.032       .   A
C234       C237 0.033       .   A
C235       C236 0.032       .   A
C235       H241 0.026       .   A
C236       H240 0.026       .   A
C237       C242 0.033       .   A
C237       C246 0.032       .   A
C242       C243 0.032       .   A
C242       O249 0.031       .   A
C243       C244 0.032       .   A
C243      Cl248 0.042       .   A
C244       C245 0.032       .   A
C244       N247 0.031       .   A
C245       C246 0.032       .   A
C245       H251 0.026       .   A
C246       H250 0.026       .   A
N247       N253 0.031       .   A
O249       H252 0.023       .   A
C208       C209 0.032       .   A
C208       C213 0.032       .   A
C209       C210 0.032       .   A
C209       H216 0.026       .   A
C210       C211 0.033       .   A
C210       H215 0.026       .   A
C211       C212 0.032       .   A
C211       C214 0.033       .   A
C212       C213 0.032       .   A
C212       H218 0.026       .   A
C213       H217 0.026       .   A
C214       C219 0.033       .   A
C214       C223 0.032       .   A
C219       C220 0.032       .   A
C219       O226 0.031       .   A
C220       C221 0.032       .   A
C220      Cl225 0.042       .   A
C221       C222 0.032       .   A
C221       N224 0.031       .   A
C222       C223 0.032       .   A
C222       H228 0.026       .   A
C223       H227 0.026       .   A
N224       N230 0.031       .   A
O226       H229 0.023       .   A
C185       C186 0.032       .   A
C185       C190 0.032       .   A
C186       C187 0.032       .   A
C186       H193 0.026       .   A
C187       C188 0.033       .   A
C187       H192 0.026       .   A
C188       C189 0.032       .   A
C188       C191 0.033       .   A
C189       C190 0.032       .   A
C189       H195 0.026       .   A
C190       H194 0.026       .   A
C191       C196 0.033       .   A
C191       C200 0.032       .   A
C196       C197 0.032       .   A
C196       O203 0.031       .   A
C197       C198 0.032       .   A
C197      Cl202 0.042       .   A
C198       C199 0.032       .   A
C198       N201 0.031       .   A
C199       C200 0.032       .   A
C199       H205 0.026       .   A
C200       H204 0.026       .   A
N201       N207 0.031       .   A
O203       H206 0.023       .   A
