data_pcu_v1-6c_Zn_1_Ch_1-66_fer_tobacco
_audit_creation_date              2021-04-07
_audit_creation_method            'tobacco_3.0'
_symmetry_space_group_name_H-M    'P1'
_symmetry_Int_Tables_number       1
_symmetry_cell_setting            triclinic
loop_
_symmetry_equiv_pos_as_xyz
  x,y,z
_cell_length_a                    51.01686543073818
_cell_length_b                    51.01686543073818
_cell_length_c                    51.01686543073818
_cell_angle_alpha                 90.0
_cell_angle_beta                  90.0
_cell_angle_gamma                 90.0
loop_
_atom_site_label
_atom_site_type_symbol
_atom_site_fract_x
_atom_site_fract_y
_atom_site_fract_z
_atom_site_charge
Zn1       Zn   -0.0219770460    0.0219770460    0.0219770460          1.4972
Zn2       Zn    0.0219770460    0.0219770460   -0.0219770460          1.4936
Zn3       Zn    0.0219770460   -0.0219770460    0.0219770460          1.4911
Zn4       Zn   -0.0219770460   -0.0219770460   -0.0219770460          1.4948
O5         O    0.0000000000    0.0000000000    0.0000000000         -2.3725
O6         O   -0.0161515215    0.0587374386    0.0161515215         -1.2788
O7         O    0.0587374386    0.0161515215   -0.0161515215          -1.277
O8         O    0.0161515215   -0.0161515215    0.0587374386         -1.2722
O9         O    0.0161515215    0.0587374386   -0.0161515215         -1.2789
O10        O   -0.0161515215    0.0161515215    0.0587374386         -1.2749
O11        O    0.0587374386   -0.0161515215    0.0161515215         -1.2808
O12        O   -0.0161515215   -0.0587374386   -0.0161515215         -1.2747
O13        O    0.0161515215    0.0161515215   -0.0587374386         -1.2823
O14        O    0.0161515215   -0.0587374386    0.0161515215         -1.2762
O15        O   -0.0161515215   -0.0161515215   -0.0587374386         -1.2808
O16        O   -0.0587374386   -0.0161515215   -0.0161515215         -1.2799
O17        O   -0.0587374386    0.0161515215    0.0161515215         -1.2778
C18        C   -0.0000000000    0.0702277564    0.0000000000          0.2401
C19        C    0.0702277564   -0.0000000000   -0.0000000000           0.245
C20        C   -0.0000000000   -0.0000000000    0.0702277564          0.2346
C21        C    0.0000000000   -0.0702277564   -0.0000000000          0.2384
C22        C    0.0000000000    0.0000000000   -0.0702277564          0.2497
C23        C   -0.0702277564    0.0000000000    0.0000000000          0.2402
Zn24      Zn    0.9780229540    0.0219770460    0.4780229540          1.4972
Zn25      Zn    1.0219770460   -0.0219770460    0.4780229540          1.4936
Zn26      Zn    1.0219770460    0.0219770460    0.5219770460          1.4911
Zn27      Zn    0.9780229540   -0.0219770460    0.5219770460          1.4948
O28        O    1.0000000000    0.0000000000    0.5000000000         -2.3725
O29        O    0.9838484785    0.0161515215    0.4412625614         -1.2788
O30        O    1.0587374386   -0.0161515215    0.4838484785          -1.277
O31        O    1.0161515215    0.0587374386    0.5161515215         -1.2722
O32        O    1.0161515215   -0.0161515215    0.4412625614         -1.2789
O33        O    0.9838484785    0.0587374386    0.4838484785         -1.2749
O34        O    1.0587374386    0.0161515215    0.5161515215         -1.2808
O35        O    0.9838484785   -0.0161515215    0.5587374386         -1.2747
O36        O    1.0161515215   -0.0587374386    0.4838484785         -1.2823
O37        O    1.0161515215    0.0161515215    0.5587374386         -1.2762
O38        O    0.9838484785   -0.0587374386    0.5161515215         -1.2808
O39        O    0.9412625614   -0.0161515215    0.5161515215         -1.2799
O40        O    0.9412625614    0.0161515215    0.4838484785         -1.2778
C41        C    1.0000000000    0.0000000000    0.4297722436          0.2401
C42        C    1.0702277564    0.0000000000    0.5000000000           0.245
C43        C    1.0000000000    0.0702277564    0.5000000000          0.2346
C44        C    1.0000000000    0.0000000000    0.5702277564          0.2384
C45        C    1.0000000000   -0.0702277564    0.5000000000          0.2497
C46        C    0.9297722436    0.0000000000    0.5000000000          0.2402
Zn47      Zn    1.0219770460    0.4780229540   -0.0219770460          1.4972
Zn48      Zn    0.9780229540    0.4780229540    0.0219770460          1.4936
Zn49      Zn    1.0219770460    0.5219770460    0.0219770460          1.4911
Zn50      Zn    0.9780229540    0.5219770460   -0.0219770460          1.4948
O51        O    1.0000000000    0.5000000000    0.0000000000         -2.3725
O52        O    1.0161515215    0.4412625614   -0.0161515215         -1.2788
O53        O    0.9838484785    0.4838484785    0.0587374386          -1.277
O54        O    1.0587374386    0.5161515215    0.0161515215         -1.2722
O55        O    0.9838484785    0.4412625614    0.0161515215         -1.2789
O56        O    1.0587374386    0.4838484785   -0.0161515215         -1.2749
O57        O    1.0161515215    0.5161515215    0.0587374386         -1.2808
O58        O    0.9838484785    0.5587374386   -0.0161515215         -1.2747
O59        O    0.9412625614    0.4838484785    0.0161515215         -1.2823
O60        O    1.0161515215    0.5587374386    0.0161515215         -1.2762
O61        O    0.9412625614    0.5161515215   -0.0161515215         -1.2808
O62        O    0.9838484785    0.5161515215   -0.0587374386         -1.2799
O63        O    1.0161515215    0.4838484785   -0.0587374386         -1.2778
C64        C    1.0000000000    0.4297722436    0.0000000000          0.2401
C65        C    1.0000000000    0.5000000000    0.0702277564           0.245
C66        C    1.0702277564    0.5000000000    0.0000000000          0.2346
C67        C    1.0000000000    0.5702277564    0.0000000000          0.2384
C68        C    0.9297722436    0.5000000000    0.0000000000          0.2497
C69        C    1.0000000000    0.5000000000   -0.0702277564          0.2402
Zn70      Zn    0.9780229540    0.4780229540    0.5219770460          1.4972
Zn71      Zn    1.0219770460    0.4780229540    0.4780229540          1.4936
Zn72      Zn    0.9780229540    0.5219770460    0.4780229540          1.4911
Zn73      Zn    1.0219770460    0.5219770460    0.5219770460          1.4948
O74        O    1.0000000000    0.5000000000    0.5000000000         -2.3725
O75        O    0.9838484785    0.4412625614    0.5161515215         -1.2788
O76        O    1.0161515215    0.4838484785    0.4412625614          -1.277
O77        O    0.9412625614    0.5161515215    0.4838484785         -1.2722
O78        O    1.0161515215    0.4412625614    0.4838484785         -1.2789
O79        O    0.9412625614    0.4838484785    0.5161515215         -1.2749
O80        O    0.9838484785    0.5161515215    0.4412625614         -1.2808
O81        O    1.0161515215    0.5587374386    0.5161515215         -1.2747
O82        O    1.0587374386    0.4838484785    0.4838484785         -1.2823
O83        O    0.9838484785    0.5587374386    0.4838484785         -1.2762
O84        O    1.0587374386    0.5161515215    0.5161515215         -1.2808
O85        O    1.0161515215    0.5161515215    0.5587374386         -1.2799
O86        O    0.9838484785    0.4838484785    0.5587374386         -1.2778
C87        C    1.0000000000    0.4297722436    0.5000000000          0.2401
C88        C    1.0000000000    0.5000000000    0.4297722436           0.245
C89        C    0.9297722436    0.5000000000    0.5000000000          0.2346
C90        C    1.0000000000    0.5702277564    0.5000000000          0.2384
C91        C    1.0702277564    0.5000000000    0.5000000000          0.2497
C92        C    1.0000000000    0.5000000000    0.5702277564          0.2402
Zn93      Zn    0.4780229540    0.9780229540   -0.0219770460          1.4972
Zn94      Zn    0.4780229540    1.0219770460    0.0219770460          1.4936
Zn95      Zn    0.5219770460    0.9780229540    0.0219770460          1.4911
Zn96      Zn    0.5219770460    1.0219770460   -0.0219770460          1.4948
O97        O    0.5000000000    1.0000000000    0.0000000000         -2.3725
O98        O    0.4412625614    0.9838484785   -0.0161515215         -1.2788
O99        O    0.4838484785    1.0161515215    0.0587374386          -1.277
O100       O    0.5161515215    0.9412625614    0.0161515215         -1.2722
O101       O    0.4412625614    1.0161515215    0.0161515215         -1.2789
O102       O    0.4838484785    0.9412625614   -0.0161515215         -1.2749
O103       O    0.5161515215    0.9838484785    0.0587374386         -1.2808
O104       O    0.5587374386    1.0161515215   -0.0161515215         -1.2747
O105       O    0.4838484785    1.0587374386    0.0161515215         -1.2823
O106       O    0.5587374386    0.9838484785    0.0161515215         -1.2762
O107       O    0.5161515215    1.0587374386   -0.0161515215         -1.2808
O108       O    0.5161515215    1.0161515215   -0.0587374386         -1.2799
O109       O    0.4838484785    0.9838484785   -0.0587374386         -1.2778
C110       C    0.4297722436    1.0000000000    0.0000000000          0.2401
C111       C    0.5000000000    1.0000000000    0.0702277564           0.245
C112       C    0.5000000000    0.9297722436    0.0000000000          0.2346
C113       C    0.5702277564    1.0000000000    0.0000000000          0.2384
C114       C    0.5000000000    1.0702277564    0.0000000000          0.2497
C115       C    0.5000000000    1.0000000000   -0.0702277564          0.2402
Zn116     Zn    0.4780229540    1.0219770460    0.5219770460          1.4972
Zn117     Zn    0.4780229540    0.9780229540    0.4780229540          1.4936
Zn118     Zn    0.5219770460    1.0219770460    0.4780229540          1.4911
Zn119     Zn    0.5219770460    0.9780229540    0.5219770460          1.4948
O120       O    0.5000000000    1.0000000000    0.5000000000         -2.3725
O121       O    0.4412625614    1.0161515215    0.5161515215         -1.2788
O122       O    0.4838484785    0.9838484785    0.4412625614          -1.277
O123       O    0.5161515215    1.0587374386    0.4838484785         -1.2722
O124       O    0.4412625614    0.9838484785    0.4838484785         -1.2789
O125       O    0.4838484785    1.0587374386    0.5161515215         -1.2749
O126       O    0.5161515215    1.0161515215    0.4412625614         -1.2808
O127       O    0.5587374386    0.9838484785    0.5161515215         -1.2747
O128       O    0.4838484785    0.9412625614    0.4838484785         -1.2823
O129       O    0.5587374386    1.0161515215    0.4838484785         -1.2762
O130       O    0.5161515215    0.9412625614    0.5161515215         -1.2808
O131       O    0.5161515215    0.9838484785    0.5587374386         -1.2799
O132       O    0.4838484785    1.0161515215    0.5587374386         -1.2778
C133       C    0.4297722436    1.0000000000    0.5000000000          0.2401
C134       C    0.5000000000    1.0000000000    0.4297722436           0.245
C135       C    0.5000000000    1.0702277564    0.5000000000          0.2346
C136       C    0.5702277564    1.0000000000    0.5000000000          0.2384
C137       C    0.5000000000    0.9297722436    0.5000000000          0.2497
C138       C    0.5000000000    1.0000000000    0.5702277564          0.2402
Zn139     Zn    0.4780229540    0.5219770460   -0.0219770460          1.4972
Zn140     Zn    0.4780229540    0.4780229540    0.0219770460          1.4936
Zn141     Zn    0.5219770460    0.4780229540   -0.0219770460          1.4911
Zn142     Zn    0.5219770460    0.5219770460    0.0219770460          1.4948
O143       O    0.5000000000    0.5000000000    0.0000000000         -2.3725
O144       O    0.4412625614    0.5161515215   -0.0161515215         -1.2788
O145       O    0.4838484785    0.4412625614    0.0161515215          -1.277
O146       O    0.5161515215    0.4838484785   -0.0587374386         -1.2722
O147       O    0.4412625614    0.4838484785    0.0161515215         -1.2789
O148       O    0.4838484785    0.5161515215   -0.0587374386         -1.2749
O149       O    0.5161515215    0.4412625614   -0.0161515215         -1.2808
O150       O    0.5587374386    0.5161515215    0.0161515215         -1.2747
O151       O    0.4838484785    0.4838484785    0.0587374386         -1.2823
O152       O    0.5587374386    0.4838484785   -0.0161515215         -1.2762
O153       O    0.5161515215    0.5161515215    0.0587374386         -1.2808
O154       O    0.5161515215    0.5587374386    0.0161515215         -1.2799
O155       O    0.4838484785    0.5587374386   -0.0161515215         -1.2778
C156       C    0.4297722436    0.5000000000    0.0000000000          0.2401
C157       C    0.5000000000    0.4297722436    0.0000000000           0.245
C158       C    0.5000000000    0.5000000000   -0.0702277564          0.2346
C159       C    0.5702277564    0.5000000000    0.0000000000          0.2384
C160       C    0.5000000000    0.5000000000    0.0702277564          0.2497
C161       C    0.5000000000    0.5702277564    0.0000000000          0.2402
Zn162     Zn    0.4780229540    0.4780229540    0.4780229540          1.4972
Zn163     Zn    0.4780229540    0.5219770460    0.5219770460          1.4936
Zn164     Zn    0.5219770460    0.4780229540    0.5219770460          1.4911
Zn165     Zn    0.5219770460    0.5219770460    0.4780229540          1.4948
O166       O    0.5000000000    0.5000000000    0.5000000000         -2.3725
O167       O    0.4412625614    0.4838484785    0.4838484785         -1.2788
O168       O    0.4838484785    0.5161515215    0.5587374386          -1.277
O169       O    0.5161515215    0.4412625614    0.5161515215         -1.2722
O170       O    0.4412625614    0.5161515215    0.5161515215         -1.2789
O171       O    0.4838484785    0.4412625614    0.4838484785         -1.2749
O172       O    0.5161515215    0.4838484785    0.5587374386         -1.2808
O173       O    0.5587374386    0.5161515215    0.4838484785         -1.2747
O174       O    0.4838484785    0.5587374386    0.5161515215         -1.2823
O175       O    0.5587374386    0.4838484785    0.5161515215         -1.2762
O176       O    0.5161515215    0.5587374386    0.4838484785         -1.2808
O177       O    0.5161515215    0.5161515215    0.4412625614         -1.2799
O178       O    0.4838484785    0.4838484785    0.4412625614         -1.2778
C179       C    0.4297722436    0.5000000000    0.5000000000          0.2401
C180       C    0.5000000000    0.5000000000    0.5702277564           0.245
C181       C    0.5000000000    0.4297722436    0.5000000000          0.2346
C182       C    0.5702277564    0.5000000000    0.5000000000          0.2384
C183       C    0.5000000000    0.5702277564    0.5000000000          0.2497
C184       C    0.5000000000    0.5000000000    0.4297722436          0.2402
C1243      C    0.5000000000    0.5000000000   -0.3995861475          0.4597
C1244      C    0.5209262213    0.4921128920   -0.3845998780          0.4537
C1245      C    0.5206343772    0.4934546240   -0.3580982017           0.455
C1246      C    0.5004091071    0.5027634413   -0.3439956919          0.4624
C1247      C    0.4795376831    0.5094726714   -0.3588215298         -0.5325
C1248      C    0.4792233763    0.5079948895   -0.3854140229         -0.5339
C1249      C    0.5028153811    0.5111897207   -0.3138006570         -0.5307
H1250      H    0.5384506155    0.4877703492   -0.3479208783          0.4507
C1251      C    0.5662483877    0.5001560109   -0.3943534528          0.4598
H1252      H    0.4618423439    0.5147214046   -0.3957642099         -0.5288
H1253      H    0.4624874815    0.5177855573   -0.3491658694         -0.5259
O1254      O    0.4976926872    0.4953228381   -0.2891113361          0.4572
C1255      C    0.5292023303    0.5265690813   -0.2771447740         -0.5183
C1256      C    0.5302944445    0.5211936412   -0.3067858370         -0.5228
C1257      C    0.5095015959    0.5067767048   -0.2351614887         -0.5333
H1258      H    0.5357669356    0.5386197776   -0.3179769965         -0.5093
H1259      H    0.5288427197    0.5476290678   -0.2733516242         -0.5018
H1260      H    0.5468423306    0.5184695264   -0.2681014574         -0.5245
H1261      H    0.5449038024    0.5059164106   -0.3103255028          0.4652
H1262      H    0.4885696128    0.5281975733   -0.2664506153         -0.5169
C1263      C    0.5040326191    0.5133389407   -0.2662045977         -0.5285
H1264      H    0.4897694368    0.5281207186   -0.3120929779         -0.5174
H1265      H    0.5753954797    0.4992646203   -0.3750092123          0.4594
H1266      H    0.5600720715    0.5202490703   -0.3986370110         -0.5245
H1267      H    0.5804499335    0.4939520933   -0.4091673590          0.4548
O1268      O    0.5437963242    0.4825987927   -0.3952077638          0.4461
C1269      C    0.4896901908    0.5041316135   -0.2112950726          0.4649
C1270      C    0.5097716575    0.5046079568   -0.1873082230          0.4655
N1271      N    0.5310623010    0.4878673963   -0.1984551349          0.4524
N1272      N    0.5296963499    0.4875045905   -0.2276385592          0.4518
C1273      C    0.5047718960    0.5013964293   -0.1562670047          0.4634
H1274      H    0.5239745121    0.4689450610   -0.2322883695          0.4372
H1275      H    0.5490582553    0.4952979042   -0.1939760080          0.4582
H1276      H    0.4757397741    0.5203503450   -0.2105736384         -0.5224
H1277      H    0.5173578315    0.5246379674   -0.1883101200         -0.5188
H1278      H    0.4790220853    0.4855590222   -0.2122690369          0.4504
H1279      H    0.5186269970    0.5255083454   -0.2301144137         -0.5186
C1280      C    0.5253165266    0.5019356391   -0.1395442738           0.464
C1281      C    0.5231986864    0.5012156441   -0.1129660755          0.4637
C1282      C    0.5000000000    0.5000000000   -0.1004138525          0.4629
C1283      C    0.4792420271    0.4992857171   -0.1171812365          0.4622
C1284      C    0.4814185903    0.5000052386   -0.1438173880          0.4624
H1285      H    0.5410699274    0.5019417702   -0.1013851935          0.4644
H1286      H    0.5449091068    0.5034245966   -0.1477839083           0.465
H1287      H    0.4636287669    0.4998883114   -0.1555051333          0.4622
H1288      H    0.4594968732    0.4983686680   -0.1092300752          0.4615
C1197      C    0.5000000000    0.5000000000    0.1004138525          0.4597
C1198      C    0.4790733616    0.5078860012    0.1154001220          0.4537
C1199      C    0.4793652767    0.5065442847    0.1419017983           0.455
C1200      C    0.4995910391    0.4972365370    0.1560043081          0.4624
C1201      C    0.5204628179    0.4905284108    0.1411784702         -0.5325
C1202      C    0.5207770465    0.4920062093    0.1145859771         -0.5339
C1203      C    0.4971852107    0.4888101305    0.1861993430         -0.5307
H1204      H    0.4615487378    0.5122276172    0.1520791217          0.4507
C1205      C    0.4337516207    0.4998404854    0.1056465472          0.4598
H1206      H    0.5381584346    0.4852806135    0.1042357901         -0.5288
H1207      H    0.5375134591    0.4822164266    0.1508341306         -0.5259
O1208      O    0.5023070654    0.5046772839    0.2108886639          0.4572
C1209      C    0.4707990749    0.4734293743    0.2228552260         -0.5183
C1210      C    0.4697066764    0.4788047566    0.1932141630         -0.5228
C1211      C    0.4904987625    0.4932227927    0.2648385113         -0.5333
H1212      H    0.4642351070    0.4613783308    0.1820230035         -0.5093
H1213      H    0.4711597993    0.4523694068    0.2266483758         -0.5018
H1214      H    0.4531586463    0.4815279963    0.2318985426         -0.5245
H1215      H    0.4550965106    0.4940812146    0.1896744972          0.4652
H1216      H    0.5114318785    0.4718030312    0.2335493847         -0.5169
C1217      C    0.4959680864    0.4866608461    0.2337954023         -0.5285
H1218      H    0.5102320504    0.4718798225    0.1879070221         -0.5174
H1219      H    0.4246044816    0.5007313922    0.1249907877          0.4594
H1220      H    0.4399289995    0.4797477527    0.1013629890         -0.5245
H1221      H    0.4195497467    0.5060436519    0.0908326410          0.4548
O1222      O    0.4562027556    0.5173988910    0.1047922362          0.4461
C1223      C    0.5103100277    0.4958689317    0.2887049274          0.4649
C1224      C    0.4902285863    0.4953915264    0.3126917770          0.4655
N1225      N    0.4689370573    0.5121309609    0.3015448651          0.4524
N1226      N    0.4703029893    0.5124938389    0.2723614408          0.4518
C1227      C    0.4952281779    0.4986033183    0.3437329953          0.4634
H1228      H    0.4760238456    0.5310536710    0.2677116305          0.4372
H1229      H    0.4509414961    0.5046995012    0.3060239920          0.4582
H1230      H    0.5242613021    0.4796509381    0.2894263616         -0.5224
H1231      H    0.4826434715    0.4753611146    0.3116898800         -0.5188
H1232      H    0.5209771509    0.5144420872    0.2877309631          0.4504
H1233      H    0.4813743521    0.4744906695    0.2698855863         -0.5186
C1234      C    0.4746835758    0.4980630220    0.3604557262           0.464
C1235      C    0.4768013779    0.4987831290    0.3870339245          0.4637
C1236      C    0.5000000000    0.5000000000    0.3995861475          0.4629
C1237      C    0.5207579351    0.5007153807    0.3828187635          0.4622
C1238      C    0.5185814099    0.4999957441    0.3561826120          0.4624
H1239      H    0.4589301753    0.4980560577    0.3986148065          0.4644
H1240      H    0.4550910743    0.4965730283    0.3522160917           0.465
H1241      H    0.5363712271    0.5001136122    0.3444948667          0.4622
H1242      H    0.5405030404    0.5016334741    0.3907699248          0.4615
C1151      C    0.5000000000    0.8995861475    0.5000000000          0.4597
C1152      C    0.5187265644    0.8845998780    0.4877758847          0.4537
C1153      C    0.5187316535    0.8580982017    0.4891489803           0.455
C1154      C    0.5009967892    0.8439956919    0.5026096720          0.4624
C1155      C    0.4820691126    0.8588215298    0.5136719125         -0.5325
C1156      C    0.4814427947    0.8854140229    0.5122970111         -0.5339
C1157      C    0.5051676243    0.8138006570    0.5103165827         -0.5307
H1158      H    0.5348979351    0.8479208783    0.4797478812          0.4507
C1159      C    0.5647158161    0.8943534528    0.4858318542          0.4598
H1160      H    0.4659267236    0.8957642099    0.5226216336         -0.5288
H1161      H    0.4672189656    0.8491658694    0.5254738862         -0.5259
O1162      O    0.4967362079    0.7891113361    0.4959321755          0.4572
C1163      C    0.5342551659    0.7771447740    0.5196284434         -0.5183
C1164      C    0.5341594868    0.8067858370    0.5141440186         -0.5228
C1165      C    0.5107418265    0.7351614887    0.5045625887         -0.5333
H1166      H    0.5432694836    0.8179769965    0.5299752013         -0.5093
H1167      H    0.5384564530    0.7733516242    0.5402682481         -0.5018
H1168      H    0.5497272813    0.7681014574    0.5079072642         -0.5245
H1169      H    0.5451210628    0.8103255028    0.4960699775          0.4652
H1170      H    0.4949351385    0.7664506153    0.5300017345         -0.5169
C1171      C    0.5068206658    0.7662045977    0.5121518670         -0.5285
H1172      H    0.4960899822    0.8120929779    0.5296673389         -0.5174
H1173      H    0.5734539596    0.8750092123    0.4829842733          0.4594
H1174      H    0.5630289066    0.8986370110    0.5067849507         -0.5245
H1175      H    0.5772405389    0.9091673590    0.4767047618          0.4548
O1176      O    0.5389993558    0.8952077638    0.4735430488          0.4461
C1177      C    0.4908270464    0.7112950726    0.5062625328          0.4649
C1178      C    0.5105366994    0.6873082230    0.5023867385          0.4655
N1179      N    0.5277052789    0.6984551349    0.4814397160          0.4524
N1180      N    0.5262931974    0.7276385592    0.4813807565          0.4518
C1181      C    0.5049609319    0.6562670047    0.5003319052          0.4634
H1182      H    0.5166947510    0.7322883695    0.4644968769          0.4372
H1183      H    0.5468819618    0.6939760080    0.4848044819          0.4582
H1184      H    0.4807123502    0.7105736384    0.5251133762         -0.5224
H1185      H    0.5222732680    0.6883101200    0.5203033320         -0.5188
H1186      H    0.4763964524    0.7122690369    0.4904351016          0.4504
H1187      H    0.5237005705    0.7301144137    0.5208787848         -0.5186
C1188      C    0.5251363879    0.6395442738    0.4964173720           0.464
C1189      C    0.5229129828    0.6129660755    0.4961721990          0.4637
C1190      C    0.5000000000    0.6004138525    0.5000000000          0.4629
C1191      C    0.4795784013    0.6171812365    0.5037897160          0.4622
C1192      C    0.4818590387    0.6438173880    0.5040217331          0.4624
H1193      H    0.5405186600    0.6013851935    0.4930180515          0.4644
H1194      H    0.5445876031    0.6477839083    0.4936359302           0.465
H1195      H    0.4644645406    0.6555051333    0.5077530767          0.4622
H1196      H    0.4601018453    0.6092300752    0.5071625256          0.4615
C1105      C    0.5000000000    1.1004138525    0.5000000000          0.4597
C1106      C    0.5178797037    1.1154001220    0.5134324012          0.4537
C1107      C    0.5179753284    1.1419017983    0.5120626299           0.455
C1108      C    0.5011667102    1.1560043081    0.4974617400          0.4624
C1109      C    0.4830097140    1.1411784702    0.4851754225         -0.5325
C1110      C    0.4822940937    1.1145859771    0.4865060297         -0.5339
C1111      C    0.5058366868    1.1861993430    0.4900466435         -0.5307
H1112      H    0.5334864815    1.1520791217    0.5225093258          0.4507
C1113      C    0.5636406577    1.1056465472    0.5184048879          0.4598
H1114      H    0.4674926361    1.1042357901    0.4751806978         -0.5288
H1115      H    0.4689701526    1.1508341306    0.4724198683         -0.5259
O1116      O    0.4964750658    1.2108886639    0.5038437448          0.4572
C1117      C    0.5354749712    1.2228552260    0.4826731826         -0.5183
C1118      C    0.5350178387    1.1932141630    0.4881393605         -0.5228
C1119      C    0.5110193181    1.2648385113    0.4961556950         -0.5333
H1120      H    0.5451519684    1.1820230035    0.4729433807         -0.5093
H1121      H    0.5410281726    1.2266483758    0.4623553504         -0.5018
H1122      H    0.5501404751    1.2318985426    0.4953891330         -0.5245
H1123      H    0.5447636917    1.1896744972    0.5068969046          0.4652
H1124      H    0.4969245792    1.2335493847    0.4697295742         -0.5169
C1125      C    0.5076071552    1.2337954023    0.4883243611         -0.5285
H1126      H    0.4980548581    1.1879070221    0.4701393962         -0.5174
H1127      H    0.5721720023    1.1249907877    0.5218224936          0.4594
H1128      H    0.5633391384    1.1013629890    0.4973861581         -0.5245
H1129      H    0.5755362473    1.0908326410    0.5283380368          0.4548
O1130      O    0.5371698072    1.1047922362    0.5289711142          0.4461
C1131      C    0.4912599852    1.2887049274    0.4931462027          0.4649
C1132      C    0.5106711545    1.3126917770    0.4983132824          0.4655
N1133      N    0.5264210464    1.3015448651    0.5203468653          0.4524
N1134      N    0.5250081505    1.2723614408    0.5203125790          0.4518
C1135      C    0.5049720207    1.3437329953    0.4999959579          0.4634
H1136      H    0.5143172160    1.2677116305    0.5365267544          0.4372
H1137      H    0.5457778728    1.3060239920    0.5182539990          0.4582
H1138      H    0.4824103938    1.2894263616    0.4736693932         -0.5224
H1139      H    0.5235636579    1.3116898800    0.4812096360         -0.5188
H1140      H    0.4758170867    1.2877309631    0.5079875809          0.4504
H1141      H    0.5250258011    1.2698855863    0.4807295569         -0.5186
C1142      C    0.5248454245    1.3604557262    0.5052324088           0.464
C1143      C    0.5226106914    1.3870339245    0.5053304293          0.4637
C1144      C    0.5000000000    1.3995861475    0.5000000000          0.4629
C1145      C    0.4798727584    1.3828187635    0.4948718631          0.4622
C1146      C    0.4821637317    1.3561826120    0.4947907441          0.4624
H1147      H    0.5399700522    1.3986148065    0.5096386895          0.4644
H1148      H    0.5440708838    1.3522160917    0.5092904757           0.465
H1149      H    0.4650531526    1.3444948667    0.4899204699          0.4622
H1150      H    0.4606610103    1.3907699248    0.4902220447          0.4615
C1059      C    0.5000000000    0.6004138525    0.0000000000          0.4597
C1060      C    0.5184275323    0.6154001220    0.0126704089          0.4537
C1061      C    0.5184656023    0.6419017983    0.0112978317           0.455
C1062      C    0.5010591871    0.6560043081   -0.0025849757          0.4624
C1063      C    0.4824026918    0.6411784702   -0.0140986759         -0.5325
C1064      C    0.4817435289    0.6145859771   -0.0127392156         -0.5339
C1065      C    0.5054139423    0.6861993430   -0.0101894773         -0.5307
H1066      H    0.5344014007    0.6520791217    0.0210845397          0.4507
C1067      C    0.5643568181    0.6056465472    0.0157185613          0.4598
H1068      H    0.4664799368    0.6042357901   -0.0234335622         -0.5288
H1069      H    0.4678403184    0.6508341306   -0.0262539516         -0.5259
O1070      O    0.4966394386    0.7108886639    0.0039882531          0.4572
C1071      C    0.5347167663    0.7228552260   -0.0187999552         -0.5183
C1072      C    0.5344893764    0.6932141630   -0.0133194111         -0.5228
C1073      C    0.5108483226    0.7648385113   -0.0043032487         -0.5333
H1074      H    0.5439770170    0.6820230035   -0.0289271997         -0.5093
H1075      H    0.5394126188    0.7266483758   -0.0393328878         -0.5018
H1076      H    0.5499028695    0.7318985426   -0.0067105107         -0.5245
H1077      H    0.5450136429    0.6896744972    0.0050127171          0.4652
H1078      H    0.4956572553    0.7335493847   -0.0301147383         -0.5169
C1079      C    0.5071105913    0.7337954023   -0.0119845253         -0.5285
H1080      H    0.4968037334    0.6879070221   -0.0297526993         -0.5174
H1081      H    0.5730240402    0.6249907877    0.0187752148          0.4594
H1082      H    0.5631736983    0.6013629890   -0.0052690099         -0.5245
H1083      H    0.5766586902    0.5908326410    0.0251438698          0.4548
O1084      O    0.5383525952    0.6047922362    0.0273860999          0.4461
C1085      C    0.4909801220    0.7887049274   -0.0064810644          0.4649
C1086      C    0.5105909898    0.8126917770   -0.0021329535          0.4655
N1087      N    0.5272514585    0.8015448651    0.0192204222          0.4524
N1088      N    0.5258383682    0.7723614408    0.0192454458          0.4518
C1089      C    0.5049674730    0.8437329953   -0.0002126456          0.4634
H1090      H    0.5158371328    0.7677116305    0.0358938949          0.4372
H1091      H    0.5465034316    0.8060239920    0.0163172598          0.4582
H1092      H    0.4813211501    0.7894263616   -0.0255694284         -0.5224
H1093      H    0.5227545367    0.8116898800   -0.0197624598         -0.5188
H1094      H    0.4761735095    0.7877309631    0.0089951706          0.4504
H1095      H    0.5241952501    0.7698855863   -0.0203034621         -0.5186
C1096      C    0.5250430789    0.8604557262    0.0041853818           0.464
C1097      C    0.5228144262    0.8870339245    0.0043770769          0.4637
C1098      C    0.5000000000    0.8995861475    0.0000000000          0.4629
C1099      C    0.4796753243    0.8828187635   -0.0042791587          0.4622
C1100      C    0.4819608769    0.8561826120   -0.0044563269          0.4624
H1101      H    0.5403392594    0.8986148065    0.0079532107          0.4644
H1102      H    0.5444218703    0.8522160917    0.0074332482           0.465
H1103      H    0.4646610262    0.8444948667   -0.0086044177          0.4622
H1104      H    0.4602854044    0.8907699248   -0.0081188308          0.4615
C1013      C    0.5000000000    1.3995861475    0.0000000000          0.4597
C1014      C    0.5025960094    1.3845998780   -0.0222120225          0.4537
C1015      C    0.5036541725    1.3580982017   -0.0213369748           0.455
C1016      C    0.5026430004    1.3439956919    0.0009047240          0.4624
C1017      C    0.4990256222    1.3588215298    0.0225275055         -0.5325
C1018      C    0.4975684056    1.3854140229    0.0221285721         -0.5339
C1019      C    0.5112338429    1.3138006570    0.0026338173         -0.5307
H1020      H    0.5067801052    1.3479208783   -0.0397749213          0.4507
C1021      C    0.5305414987    1.3943534528   -0.0587885198          0.4598
H1022      H    0.4955682045    1.3957642099    0.0406581562         -0.5288
H1023      H    0.4985866996    1.3491658694    0.0414911759         -0.5259
O1024      O    0.4947855748    1.2891113361   -0.0000964631          0.4572
C1025      C    0.5370076082    1.2771447740   -0.0137524222         -0.5183
C1026      C    0.5327328534    1.3067858370   -0.0171896511         -0.5228
C1027      C    0.5103814388    1.2351614887   -0.0053319585         -0.5333
H1028      H    0.5507270113    1.3179769965   -0.0140545802         -0.5093
H1029      H    0.5555538718    1.2733516242   -0.0037680116         -0.5018
H1030      H    0.5379067422    1.2681014574   -0.0331422123         -0.5245
H1031      H    0.5258639629    1.3103255028   -0.0371807855          0.4652
H1032      H    0.5198072095    1.2664506153    0.0230961327         -0.5169
C1033      C    0.5137019918    1.2662045977    0.0025386561         -0.5285
H1034      H    0.5202895523    1.3120929779    0.0219948473         -0.5174
H1035      H    0.5339473273    1.3750092123   -0.0673245728          0.4594
H1036      H    0.5455592526    1.3986370110   -0.0440798494         -0.5245
H1037      H    0.5315468768    1.4091673590   -0.0742533740          0.4548
O1038      O    0.5046385671    1.3952077638   -0.0468978008          0.4461
C1039      C    0.4989394352    1.2112950726    0.0110561113          0.4649
C1040      C    0.5085784951    1.1873082230   -0.0065671894          0.4655
N1041      N    0.5034756642    1.1984551349   -0.0331660425          0.4524
N1042      N    0.5025264540    1.2276385592   -0.0321189272          0.4518
C1043      C    0.5034306255    1.1562670047   -0.0035988630          0.4634
H1044      H    0.4834108724    1.2322883695   -0.0355525992          0.4372
H1045      H    0.5183362451    1.1939760080   -0.0457449913          0.4582
H1046      H    0.5069472299    1.2105736384    0.0308938683         -0.5224
H1047      H    0.5298561504    1.1883101200   -0.0041150987         -0.5188
H1048      H    0.4775422942    1.2122690369    0.0120110862          0.4504
H1049      H    0.5312119093    1.2301144137   -0.0048432859         -0.5186
C1050      C    0.5133380972    1.1395442738   -0.0216048231           0.464
C1051      C    0.5117264739    1.1129660755   -0.0200535945          0.4637
C1052      C    0.5000000000    1.1004138525    0.0000000000          0.4629
C1053      C    0.4898390723    1.1171812365    0.0181151646          0.4622
C1054      C    0.4914772243    1.1438173880    0.0165115447          0.4624
H1055      H    0.5205731373    1.1013851935   -0.0355985313          0.4644
H1056      H    0.5236524797    1.1477839083   -0.0383290483           0.465
H1057      H    0.4832091840    1.1555051333    0.0322637191          0.4622
H1058      H    0.4799627974    1.1092300752    0.0352374095          0.4615
C967       C    0.5000000000    1.0000000000   -0.1004138525          0.4597
C968       C    0.5091787294    0.9796072529   -0.1154001220          0.4537
C969       C    0.5078213890    0.9798147246   -0.1419017983           0.455
C970       C    0.4972675063    0.9994190913   -0.1560043081          0.4624
C971       C    0.4892677777    1.0198307166   -0.1411784702         -0.5325
C972       C    0.4907230431    1.0202367098   -0.1145859771         -0.5339
C973       C    0.4890079711    0.9964912225   -0.1861993430         -0.5307
H974       H    0.5146073412    0.9623883027   -0.1520791217          0.4507
C975       C    0.5039820691    0.9338712140   -0.1056465472          0.4598
H976       H    0.4829240678    1.0371636787   -0.1042357901         -0.5288
H977       H    0.4799061920    1.0363284183   -0.1508341306         -0.5259
O978       O    0.5045239187    1.0025949364   -0.2108886639          0.4572
C979       C    0.4753067271    0.9691952203   -0.2228552260         -0.5183
C980       C    0.4807398838    0.9684409803   -0.1932141630         -0.5228
C981       C    0.4938299818    0.9900936925   -0.2648385113         -0.5333
H982       H    0.4636895745    0.9618907635   -0.1820230035         -0.5093
H983       H    0.4542653982    0.9682387535   -0.2266483758         -0.5018
H984       H    0.4844922362    0.9520955472   -0.2318985426         -0.5245
H985       H    0.4968997652    0.9548143393   -0.1896744972          0.4652
H986       H    0.4711435558    1.0096468918   -0.2335493847         -0.5169
C987       C    0.4869389742    0.9951421240   -0.2337954023         -0.5285
H988       H    0.4712951997    1.0084542106   -0.1879070221         -0.5174
H989       H    0.5054430329    0.9247976561   -0.1249907877          0.4594
H990       H    0.4835424766    0.9387804889   -0.1013629890         -0.5245
H991       H    0.5110608812    0.9200848832   -0.0908326410          0.4548
O992       O    0.5201026855    0.9573760389   -0.1047922362          0.4461
C993       C    0.4952325179    1.0100316255   -0.2887049274          0.4649
C994       C    0.4960113631    0.9899596150   -0.3126917770          0.4655
N995       N    0.5140490205    0.9697561305   -0.3015448651          0.4524
N996       N    0.5143258026    0.9711420750   -0.2723614408          0.4518
C997       C    0.4989043426    0.9951502020   -0.3437329953          0.4634
H998       H    0.5324917183    0.9780119418   -0.2677116305          0.4372
H999       H    0.5077570205    0.9513312138   -0.3060239920          0.4582
H1000      H    0.4781741304    1.0229418072   -0.2894263616         -0.5224
H1001      H    0.4764942809    0.9811372079   -0.3116898800         -0.5188
H1002      H    0.5131025334    1.0218389185   -0.2877309631          0.4504
H1003      H    0.4757048725    0.9798161580   -0.2698855863         -0.5186
C1004      C    0.4996493726    0.9746120052   -0.3604557262           0.464
C1005      C    0.5002356847    0.9767706803   -0.3870339245          0.4637
C1006      C    0.5000000000    1.0000000000   -0.3995861475          0.4629
C1007      C    0.4994163763    1.0207620573   -0.3828187635          0.4622
C1008      C    0.4988342045    1.0185448034   -0.3561826120          0.4624
H1009      H    0.5006271873    0.9588889790   -0.3986148065          0.4644
H1010      H    0.4993870455    0.9549646802   -0.3522160917           0.465
H1011      H    0.4978397777    1.0363071964   -0.3444948667          0.4622
H1012      H    0.4990983821    1.0405259374   -0.3907699248          0.4615
C921       C    0.5000000000    1.0000000000    0.1004138525          0.4597
C922       C    0.5209266384    0.9921139988    0.1154001220          0.4537
C923       C    0.5206347233    0.9934557153    0.1419017983           0.455
C924       C    0.5004089609    1.0027634630    0.1560043081          0.4624
C925       C    0.4795371821    1.0094715892    0.1411784702         -0.5325
C926       C    0.4792229535    1.0079937907    0.1145859771         -0.5339
C927       C    0.5028147893    1.0111898695    0.1861993430         -0.5307
H928       H    0.5384512622    0.9877723828    0.1520791217          0.4507
C929       C    0.5662483793    1.0001595146    0.1056465472          0.4598
H930       H    0.4618415654    1.0147193865    0.1042357901         -0.5288
H931       H    0.4624865409    1.0177835734    0.1508341306         -0.5259
O932       O    0.4976929346    0.9953227161    0.2108886639          0.4572
C933       C    0.5292009251    1.0265706257    0.2228552260         -0.5183
C934       C    0.5302933236    1.0211952434    0.1932141630         -0.5228
C935       C    0.5095012375    1.0067772073    0.2648385113         -0.5333
H936       H    0.5357648930    1.0386216692    0.1820230035         -0.5093
H937       H    0.5288402007    1.0476305932    0.2266483758         -0.5018
H938       H    0.5468413537    1.0184720037    0.2318985426         -0.5245
H939       H    0.5449034894    1.0059187854    0.1896744972          0.4652
H940       H    0.4885681215    1.0281969688    0.2335493847         -0.5169
C941       C    0.5040319136    1.0133391539    0.2337954023         -0.5285
H942       H    0.4897679496    1.0281201775    0.1879070221         -0.5174
H943       H    0.5753955184    0.9992686078    0.1249907877          0.4594
H944       H    0.5600710005    1.0202522473    0.1013629890         -0.5245
H945       H    0.5804502533    0.9939563481    0.0908326410          0.4548
O946       O    0.5437972444    0.9826011090    0.1047922362          0.4461
C947       C    0.4896899723    1.0041310683    0.2887049274          0.4649
C948       C    0.5097714137    1.0046084736    0.3126917770          0.4655
N949       N    0.5310629427    0.9878690391    0.3015448651          0.4524
N950       N    0.5296970107    0.9875061611    0.2723614408          0.4518
C951       C    0.5047718221    1.0013966817    0.3437329953          0.4634
H952       H    0.5239761544    0.9689463290    0.2677116305          0.4372
H953       H    0.5490585039    0.9953004988    0.3060239920          0.4582
H954       H    0.4757386979    1.0203490619    0.2894263616         -0.5224
H955       H    0.5173565285    1.0246388854    0.3116898800         -0.5188
H956       H    0.4790228491    0.9855579128    0.2877309631          0.4504
H957       H    0.5186256479    1.0255093305    0.2698855863         -0.5186
C958       C    0.5253164242    1.0019369780    0.3604557262           0.464
C959       C    0.5231986221    1.0012168710    0.3870339245          0.4637
C960       C    0.5000000000    1.0000000000    0.3995861475          0.4629
C961       C    0.4792420649    0.9992846193    0.3828187635          0.4622
C962       C    0.4814185901    1.0000042559    0.3561826120          0.4624
H963       H    0.5410698247    1.0019439423    0.3986148065          0.4644
H964       H    0.5449089257    1.0034269717    0.3522160917           0.465
H965       H    0.4636287729    0.9998863878    0.3444948667          0.4622
H966       H    0.4594969596    0.9983665259    0.3907699248          0.4615
C875       C    0.8995861475    0.5000000000    0.5000000000          0.4597
C876       C    0.8845998780    0.5206696523    0.4914630988          0.4537
C877       C    0.8580982017    0.5195398855    0.4906826858           0.455
C878       C    0.8439956919    0.4984108130    0.4977025098          0.4624
C879       C    0.8588215298    0.4785858825    0.5070621164         -0.5325
C880       C    0.8854140229    0.4793659563    0.5083559915         -0.5339
C881       C    0.8138006570    0.4944112967    0.4899053175         -0.5307
H882       H    0.8479208783    0.5364335432    0.4826618595          0.4507
C883       C    0.8943534528    0.5482711137    0.4546262985          0.4598
H884       H    0.8957642099    0.4620780656    0.5153183995         -0.5288
H885       H    0.8491658694    0.4604557983    0.5126400636         -0.5259
O886       O    0.7891113361    0.5015104491    0.5049918012          0.4572
C887       C    0.7771447740    0.5031733733    0.4606474667         -0.5183
C888       C    0.8067858370    0.5076432962    0.4638267527         -0.5228
C889       C    0.7351614887    0.5023087837    0.4885600013         -0.5333
H890       H    0.8179769965    0.4997343264    0.4473626528         -0.5093
H891       H    0.7733516242    0.4885229430    0.4455141509         -0.5018
H892       H    0.7681014574    0.5215884122    0.4545107947         -0.5245
H893       H    0.8103255028    0.5287488833    0.4650020416          0.4652
H894       H    0.7664506153    0.4723888882    0.4872178485         -0.5169
C895       C    0.7662045977    0.4938318706    0.4875042593         -0.5285
H896       H    0.8120929779    0.4733175621    0.4864542721         -0.5174
H897       H    0.8750092123    0.5555597347    0.4490280958          0.4594
H898       H    0.8986370110    0.5300336389    0.4441729532         -0.5245
H899       H    0.9091673590    0.5628801637    0.4494544365          0.4548
O900       O    0.8952077638    0.5438703516    0.4827862764          0.4461
C901       C    0.7112950726    0.4896486427    0.5040263877          0.4649
C902       C    0.6873082230    0.5039876473    0.4899592219          0.4655
N903       N    0.6984551349    0.5309719466    0.4876385622          0.4524
N904       N    0.7276385592    0.5302223274    0.4888366947          0.4518
C905       C    0.6562670047    0.5025306467    0.4957201830          0.4634
H906       H    0.7322883695    0.5387235273    0.5062988013          0.4372
H907       H    0.6939760080    0.5390370442    0.4699179241          0.4582
H908       H    0.7105736384    0.4683810281    0.5017133931         -0.5224
H909       H    0.6883101200    0.4958432658    0.4701496178         -0.5188
H910       H    0.7122690369    0.4945467683    0.5248772387          0.4504
H911       H    0.7301144137    0.4961754429    0.4686469545         -0.5186
C912       C    0.6395442738    0.5171649262    0.4812906834           0.464
C913       C    0.6129660755    0.5161102677    0.4832633302          0.4637
C914       C    0.6004138525    0.5000000000    0.5000000000          0.4629
C915       C    0.6171812365    0.4853295350    0.5147030982          0.4622
C916       C    0.6438173880    0.4864273992    0.5126906785          0.4624
H917       H    0.6013851935    0.5286646138    0.4705237498          0.4644
H918       H    0.6477839083    0.5304551219    0.4668180578           0.465
H919       H    0.6555051333    0.4735163137    0.5249297700          0.4622
H920       H    0.6092300752    0.4715372046    0.5288623249          0.4615
C829       C    1.1004138525    0.5000000000    0.5000000000          0.4597
C830       C    1.1154001220    0.5089398782    0.4795014199          0.4537
C831       C    1.1419017983    0.5096980263    0.4806462470           0.455
C832       C    1.1560043081    0.5022659413    0.5016338563          0.4624
C833       C    1.1411784702    0.4925200509    0.5212717719         -0.5325
C834       C    1.1145859771    0.4912416938    0.5204665196         -0.5339
C835       C    1.1861993430    0.5099833481    0.5057852380         -0.5307
H836       H    1.1520791217    0.5180480127    0.4639128357          0.4507
C837       C    1.1056465472    0.5463099246    0.4526263354          0.4598
H838       H    1.1042357901    0.4839422058    0.5376148072         -0.5288
H839       H    1.1508341306    0.4865882723    0.5392891926         -0.5259
O840       O    1.2108886639    0.4950387227    0.4983921248          0.4572
C841       C    1.2228552260    0.5394071124    0.4975975689         -0.5183
C842       C    1.1932141630    0.5363159352    0.4930662674         -0.5228
C843       C    1.2648385113    0.5114830016    0.4979155991         -0.5333
H844       H    1.1820230035    0.5526220606    0.5012960099         -0.5093
H845       H    1.2266483758    0.5542507431    0.5125414299         -0.5018
H846       H    1.2318985426    0.5459030867    0.4793061853         -0.5245
H847       H    1.1896744972    0.5355540179    0.4719417178          0.4652
H848       H    1.2335493847    0.5122392089    0.5278560345         -0.5169
C849       C    1.2337954023    0.5123726039    0.5064115542         -0.5285
H850       H    1.1879070221    0.5130208180    0.5269424857         -0.5174
H851       H    1.1249907877    0.5520497309    0.4454486971          0.4594
H852       H    1.1013629890    0.5564042645    0.4710649423         -0.5245
H853       H    1.0908326410    0.5517667709    0.4381213251          0.4548
O854       O    1.1047922362    0.5180691966    0.4564750169          0.4461
C855       C    1.2887049274    0.4957717538    0.5102705564          0.4649
C856       C    1.3126917770    0.5101169132    0.4962096672          0.4655
N857       N    1.3015448651    0.5129653516    0.4692759658          0.4524
N858       N    1.2723614408    0.5117527747    0.4700019877          0.4518
C859       C    1.3437329953    0.5043285349    0.4975536165          0.4634
H860       H    1.2677116305    0.4944604269    0.4611605923          0.4372
H861       H    1.3060239920    0.5308404702    0.4615592988          0.4582
H862       H    1.2894263616    0.4976679872    0.5315793733         -0.5224
H863       H    1.3116898800    0.5297632935    0.5047402652         -0.5188
H864       H    1.2877309631    0.4750207799    0.5049652096          0.4504
H865       H    1.2698855863    0.5312721713    0.5044375668         -0.5186
C866       C    1.3604557262    0.5190417388    0.4832046017           0.464
C867       C    1.3870339245    0.5170488248    0.4842204431          0.4637
C868       C    1.3995861475    0.5000000000    0.5000000000          0.4629
C869       C    1.3828187635    0.4850125417    0.5143798377          0.4622
C870       C    1.3561826120    0.4870460667    0.5133215774          0.4624
H871       H    1.3986148065    0.5300317180    0.4719178825          0.4644
H872       H    1.3522160917    0.5337717496    0.4702002572           0.465
H873       H    1.3444948667    0.4745565831    0.5259906062          0.4622
H874       H    1.3907699248    0.4705860402    0.5278923554          0.4615
C783       C    0.6004138525    0.5000000000    0.0000000000          0.4597
C784       C    0.6154001220    0.4814873690    0.0125457443          0.4537
C785       C    0.6419017983    0.4814585640    0.0111729415           0.455
C786       C    0.6560043081    0.4989582842   -0.0025920658          0.4624
C787       C    0.6411784702    0.5176920659   -0.0139795823         -0.5325
C788       C    0.6145859771    0.5183420382   -0.0126157040         -0.5339
C789       C    0.6861993430    0.4946549545   -0.0102257864         -0.5307
H790       H    0.6520791217    0.4654570735    0.0208518685          0.4507
C791       C    0.6056465472    0.4355385559    0.0152838293          0.4598
H792       H    0.6042357901    0.5336774637   -0.0232067860         -0.5288
H793       H    0.6508341306    0.5323361491   -0.0260362930         -0.5259
O794       O    0.7108886639    0.5033335663    0.0040108442          0.4572
C795       C    0.7228552260    0.4654109141   -0.0190338465         -0.5183
C796       C    0.6932141630    0.4656013081   -0.0135518925         -0.5228
C797       C    0.7648385113    0.4891809691   -0.0043763710         -0.5333
H798       H    0.6820230035    0.4562192278   -0.0292233620         -0.5093
H799       H    0.7266483758    0.4608537548   -0.0395980059         -0.5018
H800       H    0.7318985426    0.4501435595   -0.0070471754         -0.5245
H801       H    0.6896744972    0.4549535492    0.0047087850          0.4652
H802       H    0.7335493847    0.5045459041   -0.0300847411         -0.5169
C803       C    0.7337954023    0.4929704598   -0.0120322450         -0.5285
H804       H    0.6879070221    0.5033970086   -0.0297304485         -0.5174
H805       H    0.6249907877    0.4268509005    0.0182819141          0.4594
H806       H    0.6013629890    0.4368633037   -0.0056952784         -0.5245
H807       H    0.5908326410    0.4231733483    0.0246258921          0.4548
O808       O    0.6047922362    0.4614634369    0.0271266166          0.4461
C809       C    0.7887049274    0.5090634163   -0.0064200375          0.4649
C810       C    0.8126917770    0.4894236478   -0.0022043884          0.4655
N811       N    0.8015448651    0.4726194347    0.0190360516          0.4524
N812       N    0.7723614408    0.4740323239    0.0190706124          0.4518
C813       C    0.8437329953    0.4950340754   -0.0002461685          0.4634
H814       H    0.7677116305    0.4839209634    0.0357861851          0.4372
H815       H    0.8060239920    0.4533874950    0.0160030150          0.4582
H816       H    0.7894263616    0.5188510044   -0.0254427737         -0.5224
H817       H    0.8116898800    0.4773793676   -0.0199155905         -0.5188
H818       H    0.7877309631    0.5237652352    0.0091557817          0.4504
H819       H    0.7698855863    0.4759423385   -0.0204663046         -0.5186
C820       C    0.8604557262    0.4749292425    0.0040162591           0.464
C821       C    0.8870339245    0.4771565506    0.0042229921          0.4637
C822       C    0.8995861475    0.5000000000    0.0000000000          0.4629
C823       C    0.8828187635    0.5203530947   -0.0041418806          0.4622
C824       C    0.8561826120    0.5180687901   -0.0043344710          0.4624
H825       H    0.8986148065    0.4596079795    0.0076807612          0.4644
H826       H    0.8522160917    0.4555289711    0.0071332551           0.465
H827       H    0.8444948667    0.5353962440   -0.0083657026          0.4622
H828       H    0.8907699248    0.5397684888   -0.0078505937          0.4615
C737       C    1.1004138525    0.5000000000    0.0000000000          0.4597
C738       C    1.1154001220    0.4867006903    0.0179789201          0.4537
C739       C    1.1419017983    0.4862178854    0.0166934953           0.455
C740       C    1.1560043081    0.4981570286   -0.0020993887          0.4624
C741       C    1.1411784702    0.5120493683   -0.0190591354         -0.5325
C742       C    1.1145859771    0.5131151674   -0.0179882944         -0.5339
C743       C    1.1861993430    0.4915640055   -0.0078721164         -0.5307
H744       H    1.1520791217    0.4743358759    0.0311346579          0.4507
C745       C    1.1056465472    0.4442652680    0.0358121887          0.4598
H746       H    1.1042357901    0.5240661241   -0.0330688395         -0.5288
H747       H    1.1508341306    0.5218617301   -0.0352927733         -0.5259
O748       O    1.2108886639    0.5044757997    0.0026770790          0.4572
C749       C    1.2228552260    0.4610542801   -0.0064748037         -0.5183
C750       C    1.1932141630    0.4630533399   -0.0013667875         -0.5228
C751       C    1.2648385113    0.4883417331   -0.0005374631         -0.5333
H752       H    1.1820230035    0.4490017311   -0.0130360067         -0.5093
H753       H    1.2266483758    0.4499302084   -0.0243607586         -0.5018
H754       H    1.2318985426    0.4506307313    0.0098996284         -0.5245
H755       H    1.1896744972    0.4590698639    0.0193927653          0.4652
H756       H    1.2335493847    0.4943031047   -0.0298881628         -0.5169
C757       C    1.2337954023    0.4893754340   -0.0090170922         -0.5285
H758       H    1.1879070221    0.4933369242   -0.0291726354         -0.5174
H759       H    1.1249907877    0.4370651379    0.0415237555          0.4594
H760       H    1.1013629890    0.4385519646    0.0155826044         -0.5245
H761       H    1.0908326410    0.4357016125    0.0487287015          0.4548
O762       O    1.1047922362    0.4726512062    0.0383792066          0.4461
C763       C    1.2887049274    0.5064188461   -0.0090642601          0.4649
C764       C    1.3126917770    0.4892915356    0.0014308551          0.4655
N765       N    1.3015448651    0.4804895677    0.0270445864          0.4524
N766       N    1.2723614408    0.4818338376    0.0266082506          0.4518
C767       C    1.3437329953    0.4952338670    0.0014159740          0.4634
H768       H    1.2677116305    0.4967098288    0.0390942609          0.4372
H769       H    1.3060239920    0.4613411323    0.0305665514          0.4582
H770       H    1.2894263616    0.5093379834   -0.0302571837         -0.5224
H771       H    1.3116898800    0.4720516480   -0.0112788908         -0.5188
H772       H    1.2877309631    0.5254568964    0.0007491116          0.4504
H773       H    1.2698855863    0.4705132956   -0.0113214380         -0.5186
C774       C    1.3604557262    0.4776833803    0.0121095708           0.464
C775       C    1.3870339245    0.4798530474    0.0115653423          0.4637
C776       C    1.3995861475    0.5000000000    0.0000000000          0.4629
C777       C    1.3828187635    0.5178246853   -0.0106622809          0.4622
C778       C    1.3561826120    0.5156059464   -0.0100857945          0.4624
H779       H    1.3986148065    0.4644468542    0.0206514705          0.4644
H780       H    1.3522160917    0.4604173485    0.0214888212           0.465
H781       H    1.3444948667    0.5306132246   -0.0196394896          0.4622
H782       H    1.3907699248    0.5349085918   -0.0206047261          0.4615
C691       C    1.0000000000    0.5000000000   -0.3995861475          0.4597
C692       C    0.9790733616    0.5078860012   -0.3845998780          0.4537
C693       C    0.9793652767    0.5065442847   -0.3580982017           0.455
C694       C    0.9995910391    0.4972365370   -0.3439956919          0.4624
C695       C    1.0204628179    0.4905284108   -0.3588215298         -0.5325
C696       C    1.0207770465    0.4920062093   -0.3854140229         -0.5339
C697       C    0.9971852107    0.4888101305   -0.3138006570         -0.5307
H698       H    0.9615487378    0.5122276172   -0.3479208783          0.4507
C699       C    0.9337516207    0.4998404854   -0.3943534528          0.4598
H700       H    1.0381584346    0.4852806135   -0.3957642099         -0.5288
H701       H    1.0375134591    0.4822164266   -0.3491658694         -0.5259
O702       O    1.0023070654    0.5046772839   -0.2891113361          0.4572
C703       C    0.9707990749    0.4734293743   -0.2771447740         -0.5183
C704       C    0.9697066764    0.4788047566   -0.3067858370         -0.5228
C705       C    0.9904987625    0.4932227927   -0.2351614887         -0.5333
H706       H    0.9642351070    0.4613783308   -0.3179769965         -0.5093
H707       H    0.9711597993    0.4523694068   -0.2733516242         -0.5018
H708       H    0.9531586463    0.4815279963   -0.2681014574         -0.5245
H709       H    0.9550965106    0.4940812146   -0.3103255028          0.4652
H710       H    1.0114318785    0.4718030312   -0.2664506153         -0.5169
C711       C    0.9959680864    0.4866608461   -0.2662045977         -0.5285
H712       H    1.0102320504    0.4718798225   -0.3120929779         -0.5174
H713       H    0.9246044816    0.5007313922   -0.3750092123          0.4594
H714       H    0.9399289995    0.4797477527   -0.3986370110         -0.5245
H715       H    0.9195497467    0.5060436519   -0.4091673590          0.4548
O716       O    0.9562027556    0.5173988910   -0.3952077638          0.4461
C717       C    1.0103100277    0.4958689317   -0.2112950726          0.4649
C718       C    0.9902285863    0.4953915264   -0.1873082230          0.4655
N719       N    0.9689370573    0.5121309609   -0.1984551349          0.4524
N720       N    0.9703029893    0.5124938389   -0.2276385592          0.4518
C721       C    0.9952281779    0.4986033183   -0.1562670047          0.4634
H722       H    0.9760238456    0.5310536710   -0.2322883695          0.4372
H723       H    0.9509414961    0.5046995012   -0.1939760080          0.4582
H724       H    1.0242613021    0.4796509381   -0.2105736384         -0.5224
H725       H    0.9826434715    0.4753611146   -0.1883101200         -0.5188
H726       H    1.0209771509    0.5144420872   -0.2122690369          0.4504
H727       H    0.9813743521    0.4744906695   -0.2301144137         -0.5186
C728       C    0.9746835758    0.4980630220   -0.1395442738           0.464
C729       C    0.9768013779    0.4987831290   -0.1129660755          0.4637
C730       C    1.0000000000    0.5000000000   -0.1004138525          0.4629
C731       C    1.0207579351    0.5007153807   -0.1171812365          0.4622
C732       C    1.0185814099    0.4999957441   -0.1438173880          0.4624
H733       H    0.9589301753    0.4980560577   -0.1013851935          0.4644
H734       H    0.9550910743    0.4965730283   -0.1477839083           0.465
H735       H    1.0363712271    0.5001136122   -0.1555051333          0.4622
H736       H    1.0405030404    0.5016334741   -0.1092300752          0.4615
C645       C    1.0000000000    0.5000000000    0.3995861475          0.4597
C646       C    1.0209266384    0.5078860012    0.3845998780          0.4537
C647       C    1.0206347233    0.5065442847    0.3580982017           0.455
C648       C    1.0004089609    0.4972365370    0.3439956919          0.4624
C649       C    0.9795371821    0.4905284108    0.3588215298         -0.5325
C650       C    0.9792229535    0.4920062093    0.3854140229         -0.5339
C651       C    1.0028147893    0.4888101305    0.3138006570         -0.5307
H652       H    1.0384512622    0.5122276172    0.3479208783          0.4507
C653       C    1.0662483793    0.4998404854    0.3943534528          0.4598
H654       H    0.9618415654    0.4852806135    0.3957642099         -0.5288
H655       H    0.9624865409    0.4822164266    0.3491658694         -0.5259
O656       O    0.9976929346    0.5046772839    0.2891113361          0.4572
C657       C    1.0292009251    0.4734293743    0.2771447740         -0.5183
C658       C    1.0302933236    0.4788047566    0.3067858370         -0.5228
C659       C    1.0095012375    0.4932227927    0.2351614887         -0.5333
H660       H    1.0357648930    0.4613783308    0.3179769965         -0.5093
H661       H    1.0288402007    0.4523694068    0.2733516242         -0.5018
H662       H    1.0468413537    0.4815279963    0.2681014574         -0.5245
H663       H    1.0449034894    0.4940812146    0.3103255028          0.4652
H664       H    0.9885681215    0.4718030312    0.2664506153         -0.5169
C665       C    1.0040319136    0.4866608461    0.2662045977         -0.5285
H666       H    0.9897679496    0.4718798225    0.3120929779         -0.5174
H667       H    1.0753955184    0.5007313922    0.3750092123          0.4594
H668       H    1.0600710005    0.4797477527    0.3986370110         -0.5245
H669       H    1.0804502533    0.5060436519    0.4091673590          0.4548
O670       O    1.0437972444    0.5173988910    0.3952077638          0.4461
C671       C    0.9896899723    0.4958689317    0.2112950726          0.4649
C672       C    1.0097714137    0.4953915264    0.1873082230          0.4655
N673       N    1.0310629427    0.5121309609    0.1984551349          0.4524
N674       N    1.0296970107    0.5124938389    0.2276385592          0.4518
C675       C    1.0047718221    0.4986033183    0.1562670047          0.4634
H676       H    1.0239761544    0.5310536710    0.2322883695          0.4372
H677       H    1.0490585039    0.5046995012    0.1939760080          0.4582
H678       H    0.9757386979    0.4796509381    0.2105736384         -0.5224
H679       H    1.0173565285    0.4753611146    0.1883101200         -0.5188
H680       H    0.9790228491    0.5144420872    0.2122690369          0.4504
H681       H    1.0186256479    0.4744906695    0.2301144137         -0.5186
C682       C    1.0253164242    0.4980630220    0.1395442738           0.464
C683       C    1.0231986221    0.4987831290    0.1129660755          0.4637
C684       C    1.0000000000    0.5000000000    0.1004138525          0.4629
C685       C    0.9792420649    0.5007153807    0.1171812365          0.4622
C686       C    0.9814185901    0.4999957441    0.1438173880          0.4624
H687       H    1.0410698247    0.4980560577    0.1013851935          0.4644
H688       H    1.0449089257    0.4965730283    0.1477839083           0.465
H689       H    0.9636287729    0.5001136122    0.1555051333          0.4622
H690       H    0.9594969596    0.5016334741    0.1092300752          0.4615
C599       C    1.0000000000   -0.3995861475    0.5000000000          0.4597
C600       C    1.0221249807   -0.3845998780    0.5032555244          0.4537
C601       C    1.0215544227   -0.3580982017    0.5020065724           0.455
C602       C    0.9998119491   -0.3439956919    0.4972127767          0.4624
C603       C    0.9779910516   -0.3588215298    0.4950965208         -0.5325
C604       C    0.9779982679   -0.3854140229    0.4966073404         -0.5339
C605       C    1.0003708526   -0.3138006570    0.4884674943         -0.5307
H606       H    1.0401720350   -0.3479208783    0.5037711790          0.4507
C607       C    1.0646992145   -0.3943534528    0.4857562345          0.4598
H608       H    0.9595842134   -0.3957642099    0.4937317733         -0.5288
H609       H    0.9595628293   -0.3491658694    0.4906005152         -0.5259
O610       O    0.9987403394   -0.2891113361    0.5050609081          0.4572
C611       C    1.0228827205   -0.2771447740    0.4678274452         -0.5183
C612       C    1.0250932233   -0.3067858370    0.4728475794         -0.5228
C613       C    1.0078427320   -0.2351614887    0.4913573379         -0.5333
H614       H    1.0267338689   -0.3179769965    0.4546561894         -0.5093
H615       H    1.0180517869   -0.2733516242    0.4473258738         -0.5018
H616       H    1.0418418685   -0.2681014574    0.4719895488         -0.5245
H617       H    1.0426178036   -0.3103255028    0.4846677400          0.4652
H618       H    0.9828334307   -0.2664506153    0.4748789771         -0.5169
C619       C    1.0011030874   -0.2662045977    0.4861085439         -0.5285
H620       H    0.9840221459   -0.3120929779    0.4746988653         -0.5174
H621       H    1.0738265925   -0.3750092123    0.4846816002          0.4594
H622       H    1.0543903510   -0.3986370110    0.4674367026         -0.5245
H623       H    1.0798953812   -0.4091673590    0.4887974538          0.4548
O624       O    1.0464954286   -0.3952077638    0.5076873368          0.4461
C625       C    0.9890473020   -0.2112950726    0.4981558738          0.4649
C626       C    1.0085679159   -0.1873082230    0.4934190143          0.4655
N627       N    1.0329321481   -0.1984551349    0.5052478798          0.4524
N628       N    1.0316746250   -0.2276385592    0.5058929271          0.4518
C629       C    1.0043656721   -0.1562670047    0.4976205224          0.4634
H630       H    1.0300314161   -0.2322883695    0.5252448115          0.4372
H631       H    1.0489357917   -0.1939760080    0.4941595882          0.4582
H632       H    0.9719663225   -0.2105736384    0.4852755975         -0.5224
H633       H    1.0117200207   -0.1883101200    0.4722337458         -0.5188
H634       H    0.9825737913   -0.2122690369    0.5185726140          0.4504
H635       H    1.0127750100   -0.2301144137    0.4711133280         -0.5186
C636       C    1.0243254792   -0.1395442738    0.4927237179           0.464
C637       C    1.0224092485   -0.1129660755    0.4938777109          0.4637
C638       C    1.0000000000   -0.1004138525    0.5000000000          0.4629
C639       C    0.9798689714   -0.1171812365    0.5051132502          0.4622
C640       C    0.9818426820   -0.1438173880    0.5039472291          0.4624
H641       H    1.0397170844   -0.1013851935    0.4893669092          0.4644
H642       H    1.0431530065   -0.1477839083    0.4871014045           0.465
H643       H    0.9644848214   -0.1555051333    0.5078454547          0.4622
H644       H    0.9607707144   -0.1092300752    0.5102091955          0.4615
C553       C    1.0000000000    0.3995861475    0.5000000000          0.4597
C554       C    1.0221249807    0.3845998780    0.4967444756          0.4537
C555       C    1.0215544227    0.3580982017    0.4979934276           0.455
C556       C    0.9998119491    0.3439956919    0.5027872233          0.4624
C557       C    0.9779910516    0.3588215298    0.5049034792         -0.5325
C558       C    0.9779982679    0.3854140229    0.5033926596         -0.5339
C559       C    1.0003708526    0.3138006570    0.5115325057         -0.5267
H560       H    1.0401720350    0.3479208783    0.4962288210          0.4507
C561       C    1.0646992145    0.3943534528    0.5142437655          0.4598
H562       H    0.9595842134    0.3957642099    0.5062682267         -0.5288
H563       H    0.9595628293    0.3491658694    0.5093994848         -0.5259
O564       O    0.9987403394    0.2891113361    0.4949390919          0.4572
C565       C    1.0228827205    0.2771447740    0.5321725548         -0.5183
C566       C    1.0250932233    0.3067858370    0.5271524206         -0.5228
C567       C    1.0078427320    0.2351614887    0.5086426621         -0.5333
H568       H    1.0267338689    0.3179769965    0.5453438106         -0.5093
H569       H    1.0180517869    0.2733516242    0.5526741262         -0.5018
H570       H    1.0418418685    0.2681014574    0.5280104512         -0.5245
H571       H    1.0426178036    0.3103255028    0.5153322600          0.4652
H572       H    0.9828334307    0.2664506153    0.5251210229         -0.5169
C573       C    1.0011030874    0.2662045977    0.5138914561         -0.5285
H574       H    0.9840221459    0.3120929779    0.5253011347         -0.5174
H575       H    1.0738265925    0.3750092123    0.5153183998          0.4594
H576       H    1.0543903510    0.3986370110    0.5325632974         -0.5245
H577       H    1.0798953812    0.4091673590    0.5112025462          0.4548
O578       O    1.0464954286    0.3952077638    0.4923126632          0.4461
C579       C    0.9890473020    0.2112950726    0.5018441262          0.4649
C580       C    1.0085679159    0.1873082230    0.5065809857          0.4655
N581       N    1.0329321481    0.1984551349    0.4947521202          0.4524
N582       N    1.0316746250    0.2276385592    0.4941070729          0.4518
C583       C    1.0043656721    0.1562670047    0.5023794776          0.4634
H584       H    1.0300314161    0.2322883695    0.4747551885          0.4372
H585       H    1.0489357917    0.1939760080    0.5058404118          0.4582
H586       H    0.9719663225    0.2105736384    0.5147244025         -0.5224
H587       H    1.0117200207    0.1883101200    0.5277662542         -0.5188
H588       H    0.9825737913    0.2122690369    0.4814273860          0.4504
H589       H    1.0127750100    0.2301144137    0.5288866720         -0.5186
C590       C    1.0243254792    0.1395442738    0.5072762821           0.464
C591       C    1.0224092485    0.1129660755    0.5061222891          0.4637
C592       C    1.0000000000    0.1004138525    0.5000000000          0.4629
C593       C    0.9798689714    0.1171812365    0.4948867498          0.4622
C594       C    0.9818426820    0.1438173880    0.4960527709          0.4624
H595       H    1.0397170844    0.1013851935    0.5106330908          0.4644
H596       H    1.0431530065    0.1477839083    0.5128985955           0.465
H597       H    0.9644848214    0.1555051333    0.4921545453          0.4622
H598       H    0.9607707144    0.1092300752    0.4897908045          0.4615
C507       C    0.8995861475   -0.0000000000    0.5000000000          0.4597
C508       C    0.8845998780    0.0214609499    0.5062881507          0.4537
C509       C    0.8580982017    0.0210688516    0.5049722189           0.455
C510       C    0.8439956919    0.0001997519    0.4972135909          0.4624
C511       C    0.8588215298   -0.0211178173    0.4920958423         -0.5325
C512       C    0.8854140229   -0.0213198976    0.4935931036         -0.5339
C513       C    0.8138006570    0.0019643672    0.4886299745         -0.5307
H514       H    0.8479208783    0.0392626996    0.5092980971          0.4507
C515       C    0.8943534528    0.0660483592    0.4948534027          0.4598
H516       H    0.8957642099   -0.0391582969    0.4881951595         -0.5288
H517       H    0.8491658694   -0.0387458403    0.4850911115         -0.5259
O518       O    0.7891113361   -0.0019483868    0.5048376982          0.4572
C519       C    0.7771447740    0.0271176736    0.4713063778         -0.5183
C520       C    0.8067858370    0.0286116597    0.4765842633         -0.5228
C521       C    0.7351614887    0.0089640485    0.4925267218         -0.5333
H522       H    0.8179769965    0.0327557456    0.4587953639         -0.5093
H523       H    0.7733516242    0.0251724649    0.4503333352         -0.5018
H524       H    0.7681014574    0.0453177471    0.4780539494         -0.5245
H525       H    0.8103255028    0.0443304565    0.4907174349          0.4652
H526       H    0.7664506153   -0.0135222551    0.4727437069         -0.5169
C527       C    0.7662045977    0.0030162277    0.4863951580         -0.5285
H528       H    0.8120929779   -0.0123200508    0.4727299508         -0.5174
H529       H    0.8750092123    0.0752366112    0.4950531351          0.4594
H530       H    0.8986370110    0.0583758222    0.4752827590         -0.5245
H531       H    0.9091673590    0.0806769364    0.4999697710          0.4548
O532       O    0.8952077638    0.0449828314    0.5140522205          0.4461
C533       C    0.7112950726   -0.0105917772    0.4966568501          0.4649
C534       C    0.6873082230    0.0093967320    0.4946689604          0.4655
N535       N    0.6984551349    0.0318880711    0.5097579476          0.4524
N536       N    0.7276385592    0.0305533351    0.5102226305          0.4518
C537       C    0.6562670047    0.0046531301    0.4982480335          0.4634
H538       H    0.7322883695    0.0262459987    0.5291604872          0.4372
H539       H    0.6939760080    0.0492730810    0.5009927752          0.4582
H540       H    0.7105736384   -0.0257244364    0.4815352099         -0.5224
H541       H    0.6883101200    0.0154523229    0.4741243459         -0.5188
H542       H    0.7122690369   -0.0198303401    0.5159803741          0.4504
H543       H    0.7301144137    0.0166523087    0.4731608250         -0.5186
C544       C    0.6395442738    0.0250987507    0.4961625621           0.464
C545       C    0.6129660755    0.0230411725    0.4970400650          0.4637
C546       C    0.6004138525   -0.0000000000    0.5000000000          0.4629
C547       C    0.6171812365   -0.0206451670    0.5022761199          0.4622
C548       C    0.6438173880   -0.0185289968    0.5013946650          0.4624
H549       H    0.6013851935    0.0408069192    0.4949696165          0.4644
H550       H    0.6477839083    0.0445234744    0.4932017677           0.465
H551       H    0.6555051333   -0.0362594533    0.5028515120          0.4622
H552       H    0.6092300752   -0.0402651172    0.5046781258          0.4615
C461       C    1.1004138525   -0.0000000000    0.5000000000          0.4597
C462       C    1.1154001220    0.0109508925    0.5194984912          0.4537
C463       C    1.1419017983    0.0095805017    0.5194121987           0.455
C464       C    1.1560043081   -0.0026702174    0.5008209235          0.4624
C465       C    1.1411784702   -0.0124484278    0.4811990808         -0.5325
C466       C    1.1145859771   -0.0110348965    0.4806656417         -0.5339
C467       C    1.1861993430   -0.0106375874    0.5044696704         -0.5307
H468       H    1.1520791217    0.0178850049    0.5361682290          0.4507
C469       C    1.1056465472    0.0098303350    0.5655151717          0.4598
H470       H    1.1042357901   -0.0203041433    0.4644969264         -0.5288
H471       H    1.1508341306   -0.0232360641    0.4655965058         -0.5259
O472       O    1.2108886639    0.0042759920    0.4970141287          0.4572
C473       C    1.2228552260   -0.0218643914    0.5328730980         -0.5183
C474       C    1.1932141630   -0.0163857558    0.5331425830         -0.5228
C475       C    1.2648385113   -0.0052672731    0.5104144077         -0.5333
H476       H    1.1820230035   -0.0327880590    0.5411789278         -0.5093
H477       H    1.2266483758   -0.0427380164    0.5356916312         -0.5018
H478       H    1.2318985426   -0.0111987583    0.5490908866         -0.5245
H479       H    1.1896744972    0.0009188048    0.5452825704          0.4652
H480       H    1.2335493847   -0.0295982038    0.4929499485         -0.5169
C481       C    1.2337954023   -0.0125788028    0.5059969221         -0.5285
H482       H    1.1879070221   -0.0293413966    0.4941244843         -0.5174
H483       H    1.1249907877    0.0120901389    0.5744234350          0.4594
H484       H    1.1013629890   -0.0109640671    0.5624377118         -0.5245
H485       H    1.0908326410    0.0181037604    0.5786194813          0.4548
O486       O    1.1047922362    0.0238031623    0.5406734495          0.4461
C487       C    1.2887049274   -0.0056382530    0.4904306479          0.4649
C488       C    1.3126917770   -0.0030825957    0.5103545236          0.4655
N489       N    1.3015448651    0.0166755435    0.5288789347          0.4524
N490       N    1.2723614408    0.0168283370    0.5274739064          0.4518
C491       C    1.3437329953   -0.0006612866    0.5049278501          0.4634
H492       H    1.2677116305    0.0343135069    0.5190202446          0.4372
H493       H    1.3060239920    0.0120421547    0.5477892104          0.4582
H494       H    1.2894263616   -0.0237742483    0.4790839722         -0.5224
H495       H    1.3116898800   -0.0217404684    0.5208728482         -0.5188
H496       H    1.2877309631    0.0111143574    0.4770852493          0.4504
H497       H    1.2698855863   -0.0224096232    0.5222586946         -0.5186
C498       C    1.3604557262    0.0019020276    0.5253190740           0.464
C499       C    1.3870339245    0.0022946101    0.5231169117          0.4637
C500       C    1.3995861475   -0.0000000000    0.5000000000          0.4629
C501       C    1.3828187635   -0.0024223945    0.4793714847          0.4622
C502       C    1.3561826120   -0.0028056586    0.4816316279          0.4624
H503       H    1.3986148065    0.0042702256    0.5408934540          0.4644
H504       H    1.3522160917    0.0033829553    0.5449122628           0.465
H505       H    1.3444948667   -0.0053712435    0.4640273880          0.4622
H506       H    1.3907699248   -0.0044916929    0.4597136597          0.4615
C415       C    0.0000000000   -0.3995861475    0.0000000000          0.4597
C416       C    0.0161223289   -0.3845998780    0.0154978617          0.4537
C417       C    0.0163830527   -0.3580982017    0.0141497369           0.455
C418       C    0.0014653721   -0.3439956919   -0.0023783736          0.4624
C419       C   -0.0150709367   -0.3588215298   -0.0167721431         -0.5325
C420       C   -0.0159423569   -0.3854140229   -0.0155379410         -0.5339
C421       C    0.0069985624   -0.3138006570   -0.0091736767         -0.5307
H422       H    0.0305156476   -0.3479208783    0.0263971484          0.4507
C423       C    0.0609449219   -0.3943534528    0.0259728647          0.4598
H424       H   -0.0292641211   -0.3957642099   -0.0285716239         -0.5288
H425       H   -0.0274632873   -0.3491658694   -0.0311333093         -0.5259
O426       O   -0.0039642773   -0.2891113361    0.0033888111          0.4572
C427       C    0.0373114330   -0.2771447740   -0.0129053922         -0.5183
C428       C    0.0361960150   -0.3067858370   -0.0075347392         -0.5228
C429       C    0.0114036241   -0.2351614887   -0.0024822188         -0.5333
H430       H    0.0480950088   -0.3179769965   -0.0213923124         -0.5093
H431       H    0.0452831496   -0.2733516242   -0.0324016504         -0.5018
H432       H    0.0503299175   -0.2681014574    0.0014922278         -0.5245
H433       H    0.0435997246   -0.3103255028    0.0122645586          0.4652
H434       H    0.0006112386   -0.2664506153   -0.0304201131         -0.5169
C435       C    0.0089644844   -0.2662045977   -0.0106689913         -0.5285
H436       H    0.0016836003   -0.3120929779   -0.0298764912         -0.5174
H437       H    0.0689998571   -0.3750092123    0.0303980074          0.4594
H438       H    0.0631898058   -0.3986370110    0.0050721850         -0.5245
H439       H    0.0715506995   -0.4091673590    0.0372728638          0.4548
O440       O    0.0333897312   -0.3952077638    0.0332572680          0.4461
C441       C   -0.0078461415   -0.2112950726   -0.0078613268          0.4649
C442       C    0.0107968580   -0.1873082230   -0.0003826388          0.4655
N443       N    0.0237639158   -0.1984551349    0.0233953612          0.4524
N444       N    0.0223655588   -0.2276385592    0.0231903048          0.4518
C445       C    0.0049359516   -0.1562670047    0.0005978197          0.4634
H446       H    0.0097906080   -0.2322883695    0.0379911892          0.4372
H447       H    0.0432317432   -0.1939760080    0.0236609065          0.4582
H448       H   -0.0142731171   -0.2105736384   -0.0282661145         -0.5224
H449       H    0.0256648548   -0.1883101200   -0.0157999678         -0.5188
H450       H   -0.0249719473   -0.2122690369    0.0050016587          0.4504
H451       H    0.0271743576   -0.2301144137   -0.0160995337         -0.5186
C452       C    0.0240293899   -0.1395442738    0.0082013195           0.464
C453       C    0.0217992237   -0.1129660755    0.0080281188          0.4637
C454       C   -0.0000000000   -0.1004138525   -0.0000000000          0.4629
C455       C   -0.0193585204   -0.1171812365   -0.0075267076          0.4622
C456       C   -0.0170745733   -0.1438173880   -0.0073299222          0.4624
H457       H    0.0385094560   -0.1013851935    0.0144059435          0.4644
H458       H    0.0426222840   -0.1477839083    0.0145566701           0.465
H459       H   -0.0334698250   -0.1555051333   -0.0142355150          0.4622
H460       H   -0.0378661763   -0.1092300752   -0.0144677991          0.4615
C369       C   -0.0000000000    0.1004138525    0.0000000000          0.4597
C370       C    0.0211738455    0.1154001220    0.0071959346          0.4537
C371       C    0.0208381151    0.1419017983    0.0058645058           0.455
C372       C    0.0003181741    0.1560043081   -0.0027753814          0.4624
C373       C   -0.0207622388    0.1411784702   -0.0087958717         -0.5325
C374       C   -0.0210278666    0.1145859771   -0.0073085688         -0.5339
C375       C    0.0024465507    0.1861993430   -0.0112761079         -0.5307
H376       H    0.0388313436    0.1520791217    0.0109608825          0.4507
C377       C    0.0662075641    0.1056465472   -0.0023305923          0.4598
H378       H   -0.0386203362    0.1042357901   -0.0134609101         -0.5288
H379       H   -0.0380761300    0.1508341306   -0.0165445888         -0.5259
O380       O   -0.0021525371    0.2108886639    0.0047503810          0.4572
C381       C    0.0283144377    0.2228552260   -0.0275133567         -0.5183
C382       C    0.0295824172    0.1932141630   -0.0221766632         -0.5228
C383       C    0.0092740237    0.2648385113   -0.0070849515         -0.5333
H384       H    0.0344799298    0.1820230035   -0.0397730480         -0.5093
H385       H    0.0272637071    0.2266483758   -0.0485501891         -0.5018
H386       H    0.0462108069    0.2318985426   -0.0199972163         -0.5245
H387       H    0.0446853913    0.1896744972   -0.0073872316          0.4652
H388       H   -0.0123498390    0.2335493847   -0.0278071640         -0.5169
C389       C    0.0035925826    0.2337954023   -0.0134641266         -0.5285
H390       H   -0.0111481387    0.1879070221   -0.0277697361         -0.5174
H391       H    0.0753789873    0.1249907877   -0.0017399440          0.4594
H392       H    0.0593750029    0.1013629890   -0.0222100798         -0.5245
H393       H    0.0806051060    0.0908326410    0.0034038029          0.4548
O394       O    0.0443439326    0.1047922362    0.0159541741          0.4461
C395       C   -0.0104398771    0.2887049274   -0.0037909578          0.4649
C396       C    0.0096151308    0.3126917770   -0.0049262373          0.4655
N397       N    0.0314438252    0.3015448651    0.0111064161          0.4524
N398       N    0.0300905196    0.2723614408    0.0115138649          0.4518
C399       C    0.0047234852    0.3437329953   -0.0015523187          0.4634
H400       H    0.0249809993    0.2677116305    0.0302512171          0.4372
H401       H    0.0491861677    0.3060239920    0.0030891785          0.4582
H402       H   -0.0249151708    0.2894263616   -0.0195430132         -0.5224
H403       H    0.0165397127    0.3116898800   -0.0251944768         -0.5188
H404       H   -0.0204925707    0.2877309631    0.0151218150          0.4504
H405       H    0.0177796232    0.2698855863   -0.0261060472         -0.5186
C406       C    0.0252393440    0.3604557262   -0.0027656347           0.464
C407       C    0.0231462796    0.3870339245   -0.0019765076          0.4637
C408       C   -0.0000000000    0.3995861475    0.0000000000          0.4629
C409       C   -0.0207233391    0.3828187635    0.0013952979          0.4622
C410       C   -0.0185715678    0.3561826120    0.0006047164          0.4624
H411       H    0.0409840537    0.3986148065   -0.0032888827          0.4644
H412       H    0.0447724890    0.3522160917   -0.0048969346           0.465
H413       H   -0.0363479658    0.3444948667    0.0013055483          0.4622
H414       H   -0.0404277490    0.3907699248    0.0029600060          0.4615
C323       C   -0.1004138525   -0.0000000000    0.0000000000          0.4597
C324       C   -0.1154001220    0.0219047721   -0.0045049048          0.4537
C325       C   -0.1419017983    0.0209415944   -0.0054835294           0.455
C326       C   -0.1560043081   -0.0011296358   -0.0025549754          0.4624
C327       C   -0.1411784702   -0.0223591470    0.0029165843         -0.5325
C328       C   -0.1145859771   -0.0218358352    0.0043338961         -0.5339
C329       C   -0.1861993430   -0.0035943141   -0.0109643570         -0.5307
H330       H   -0.1520791217    0.0390406229   -0.0101903852          0.4507
C331       C   -0.1056465472    0.0559307323   -0.0355053010          0.4598
H332       H   -0.1042357901   -0.0401233956    0.0079271429         -0.5288
H333       H   -0.1508341306   -0.0412140292    0.0049918827         -0.5259
O334       O   -0.2108886639    0.0005465066    0.0051866045          0.4572
C335       C   -0.2228552260    0.0105044341   -0.0380571812         -0.5183
C336       C   -0.1932141630    0.0142980551   -0.0340952991         -0.5228
C337       C   -0.2648385113    0.0044153178   -0.0108031950         -0.5333
H338       H   -0.1820230035    0.0096204281   -0.0517514083         -0.5093
H339       H   -0.2266483758   -0.0010446226   -0.0556717105         -0.5018
H340       H   -0.2318985426    0.0297440919   -0.0406277779         -0.5245
H341       H   -0.1896744972    0.0348077849   -0.0289788457          0.4652
H342       H   -0.2335493847   -0.0247206907   -0.0177382171         -0.5169
C343       C   -0.2337954023   -0.0037126987   -0.0134315011         -0.5285
H344       H   -0.1879070221   -0.0236651843   -0.0183138824         -0.5174
H345       H   -0.1249907877    0.0641406986   -0.0396357152          0.4594
H346       H   -0.1013629890    0.0399798529   -0.0491964428         -0.5245
H347       H   -0.0908326410    0.0712509464   -0.0378427222          0.4548
O348       O   -0.1047922362    0.0463218598   -0.0086721007          0.4461
C349       C   -0.2887049274   -0.0109231819    0.0020115897          0.4649
C350       C   -0.3126917770    0.0058016642   -0.0091136846          0.4655
N351       N   -0.3015448651    0.0327418706   -0.0063274423          0.4524
N352       N   -0.2723614408    0.0317806584   -0.0052913335          0.4518
C353       C   -0.3437329953    0.0032890869   -0.0037286611          0.4634
H354       H   -0.2677116305    0.0368526351    0.0134562161          0.4372
H355       H   -0.3060239920    0.0439902007   -0.0222190088          0.4582
H356       H   -0.2894263616   -0.0313784821   -0.0042527595         -0.5224
H357       H   -0.3116898800    0.0015208477   -0.0301000129         -0.5188
H358       H   -0.2877309631   -0.0100263765    0.0234112477          0.4504
H359       H   -0.2698855863    0.0021292075   -0.0315136030         -0.5186
C360       C   -0.3604557262    0.0203719777   -0.0151543969           0.464
C361       C   -0.3870339245    0.0189657531   -0.0134148072          0.4637
C362       C   -0.3995861475   -0.0000000000    0.0000000000          0.4629
C363       C   -0.3828187635   -0.0171697945    0.0116876772          0.4622
C364       C   -0.3561826120   -0.0157136659    0.0099171325          0.4624
H365       H   -0.3986148065    0.0336884475   -0.0235711246          0.4644
H366       H   -0.3522160917    0.0361427764   -0.0268748108           0.465
H367       H   -0.3444948667   -0.0306928028    0.0195148899          0.4622
H368       H   -0.3907699248   -0.0333749676    0.0230060005          0.4615
C277       C    0.3995861475   -0.0000000000    0.0000000000          0.4597
C278       C    0.3845998780   -0.0215071996   -0.0061280971          0.4537
C279       C    0.3580982017   -0.0211053088   -0.0048151229           0.455
C280       C    0.3439956919   -0.0001789883    0.0027878199          0.4624
C281       C    0.3588215298    0.0211761154    0.0077466155         -0.5325
C282       C    0.3854140229    0.0213670358    0.0062478903         -0.5339
C283       C    0.3138006570   -0.0018796087    0.0113843441         -0.5307
H284       H    0.3479208783   -0.0393308787   -0.0090053411          0.4507
C285       C    0.3943534528   -0.0660081854    0.0056384995          0.4598
H286       H    0.3957642099    0.0392451536    0.0115127927         -0.5288
H287       H    0.3491658694    0.0388558328    0.0146198272         -0.5259
O288       O    0.2891113361    0.0019122930   -0.0048520790          0.4572
C289       C    0.2771447740   -0.0269031603    0.0288948464         -0.5183
C290       C    0.3067858370   -0.0284364239    0.0236282371         -0.5228
C291       C    0.2351614887   -0.0089081256    0.0075398509         -0.5333
H292       H    0.3179769965   -0.0324478717    0.0414475153         -0.5093
H293       H    0.2733516242   -0.0248017613    0.0498528156         -0.5018
H294       H    0.2681014574   -0.0451529966    0.0222830482         -0.5245
H295       H    0.3103255028   -0.0442600733    0.0096125591          0.4652
H296       H    0.2664506153    0.0137249329    0.0271547990         -0.5169
C297       C    0.2662045977   -0.0029147911    0.0136269346         -0.5285
H298       H    0.3120929779    0.0125228645    0.0271775110         -0.5174
H299       H    0.3750092123   -0.0751976704    0.0055072229          0.4594
H300       H    0.3986370110   -0.0581900645    0.0251514415         -0.5245
H301       H    0.4091673590   -0.0806744724    0.0006312526          0.4548
O302       O    0.3952077638   -0.0450862689   -0.0137167189          0.4461
C303       C    0.2112950726    0.0106163890    0.0032641508          0.4649
C304       C    0.1873082230   -0.0093567562    0.0054008951          0.4655
N305       N    0.1984551349   -0.0319598806   -0.0095201181          0.4524
N306       N    0.2276385592   -0.0306286434   -0.0099947316          0.4518
C307       C    0.1562670047   -0.0046399492    0.0017865826          0.4634
H308       H    0.2322883695   -0.0264625092   -0.0289641514          0.4372
H309       H    0.1939760080   -0.0492791096   -0.0006256747          0.4582
H310       H    0.2105736384    0.0258612810    0.0182726366         -0.5224
H311       H    0.1883101200   -0.0152591265    0.0259900522         -0.5188
H312       H    0.2122690369    0.0197107397   -0.0161276620          0.4504
H313       H    0.2301144137   -0.0164519010    0.0269624860         -0.5186
C314       C    0.1395442738   -0.0250694662    0.0040243113           0.464
C315       C    0.1129660755   -0.0230184822    0.0031315043          0.4637
C316       C    0.1004138525   -0.0000000000    0.0000000000          0.4629
C317       C    0.1171812365    0.0206276375   -0.0024298584          0.4622
C318       C    0.1438173880    0.0185180927   -0.0015326630          0.4624
H319       H    0.1013851935   -0.0407683116    0.0053342459          0.4644
H320       H    0.1477839083   -0.0444715937    0.0071297332           0.465
H321       H    0.1555051333    0.0362372040   -0.0031215574          0.4622
H322       H    0.1092300752    0.0402291489   -0.0049779617          0.4615
C231       C   -0.0000000000    0.0000000000   -0.3995861475          0.4597
C232       C   -0.0209034705    0.0079472088   -0.3845998780          0.4537
C233       C   -0.0206154833    0.0066046438   -0.3580982017           0.455
C234       C   -0.0004170464   -0.0027622543   -0.3439956919          0.4624
C235       C    0.0204350119   -0.0095314326   -0.3588215298         -0.5325
C236       C    0.0207535639   -0.0080545600   -0.3854140229         -0.5339
C237       C   -0.0028475241   -0.0111815842   -0.3138006570         -0.5307
H238       H   -0.0384153137    0.0123400916   -0.3479208783          0.4507
C239       C   -0.0662485625    0.0000343606   -0.3943534528          0.4598
H240       H    0.0381151953   -0.0148309933   -0.3957642099         -0.5288
H241       H    0.0374612552   -0.0178932795   -0.3491658694         -0.5259
O242       O    0.0023207435    0.0046705123   -0.2891113361          0.4572
C243       C   -0.0292785584   -0.0264850561   -0.2771447740         -0.5183
C244       C   -0.0303552213   -0.0211064998   -0.3067858370         -0.5228
C245       C   -0.0095210302   -0.0067493731   -0.2351614887         -0.5333
H246       H   -0.0358777654   -0.0385168386   -0.3179769965         -0.5093
H247       H   -0.0289794671   -0.0475459890   -0.2733516242         -0.5018
H248       H   -0.0468952110   -0.0183348444   -0.2681014574         -0.5245
H249       H   -0.0449206184   -0.0057873510   -0.3103255028          0.4652
H250       H    0.0113493117   -0.0282303032   -0.2664506153         -0.5169
C251       C   -0.0040709331   -0.0133272975   -0.2662045977         -0.5285
H252       H    0.0101497135   -0.0281500010   -0.3120929779         -0.5174
H253       H   -0.0753930552    0.0009520324   -0.3750092123          0.4594
H254       H   -0.0601300110   -0.0200763641   -0.3986370110         -0.5245
H255       H   -0.0804322221    0.0062790620   -0.4091673590          0.4548
O256       O   -0.0437461394    0.0175269882   -0.3952077638          0.4461
C257       C    0.0102978940   -0.0041612227   -0.2112950726          0.4649
C258       C   -0.0097848585   -0.0045798580   -0.1873082230          0.4655
N259       N   -0.0310273086    0.0122218140   -0.1984551349          0.4524
N260       N   -0.0296603206    0.0125806930   -0.2276385592          0.4518
C261       C   -0.0047758891   -0.0013827111   -0.1562670047          0.4634
H262       H   -0.0238851739    0.0311237037   -0.2322883695          0.4372
H263       H   -0.0490445408    0.0048430497   -0.1939760080          0.4582
H264       H    0.0242016472   -0.0204199749   -0.2105736384         -0.5224
H265       H   -0.0174285593   -0.0245879864   -0.1883101200         -0.5188
H266       H    0.0210193255    0.0143806362   -0.2122690369          0.4504
H267       H   -0.0187002206   -0.0254547137   -0.2301144137         -0.5186
C268       C   -0.0253219843   -0.0018628818   -0.1395442738           0.464
C269       C   -0.0232020839   -0.0011489755   -0.1129660755          0.4637
C270       C    0.0000000000    0.0000000000   -0.1004138525          0.4629
C271       C    0.0207599398    0.0006546300   -0.1171812365          0.4622
C272       C    0.0185813179   -0.0000586340   -0.1438173880          0.4624
H273       H   -0.0410753377   -0.0018237440   -0.1013851935          0.4644
H274       H   -0.0449187623   -0.0032955320   -0.1477839083           0.465
H275       H    0.0363714039    0.0000071721   -0.1555051333          0.4622
H276       H    0.0405076473    0.0015149358   -0.1092300752          0.4615
C185       C   -0.0000000000    0.0000000000    0.3995861475          0.4597
C186       C    0.0200641745    0.0098763408    0.3845998780          0.4537
C187       C    0.0199036224    0.0085126545    0.3580982017           0.455
C188       C    0.0006747699   -0.0027108416    0.3439956919          0.4624
C189       C   -0.0194489193   -0.0114095334    0.3588215298         -0.5325
C190       C   -0.0199048435   -0.0099691303    0.3854140229         -0.5339
C191       C    0.0038856569   -0.0108645244    0.3138006570         -0.5307
H192       H    0.0370857294    0.0158953724    0.3479208783          0.4507
C193       C    0.0659521860    0.0062595828    0.3943534528          0.4598
H194       H   -0.0365528691   -0.0183470498    0.3957642099         -0.5288
H195       H   -0.0356140598   -0.0213343348    0.3491658694         -0.5259
O196       O   -0.0027493621    0.0044317653    0.2891113361          0.4572
C197       C    0.0316378013   -0.0236165558    0.2771447740         -0.5183
C198       C    0.0322042773   -0.0181606256    0.3067858370         -0.5228
C199       C    0.0101131382   -0.0058248166    0.2351614887         -0.5333
H200       H    0.0393384330   -0.0349749710    0.3179769965         -0.5093
H201       H    0.0333191283   -0.0446124005    0.2733516242         -0.5018
H202       H    0.0484106258   -0.0138469726    0.2681014574         -0.5245
H203       H    0.0452656832   -0.0015405538    0.3103255028          0.4652
H204       H   -0.0086462911   -0.0291718793    0.2664506153         -0.5169
C205       C    0.0053052849   -0.0128857792    0.2662045977         -0.5285
H206       H   -0.0074595471   -0.0289792063    0.3120929779         -0.5174
H207       H    0.0749699810    0.0080325016    0.3750092123          0.4594
H208       H    0.0617505127   -0.0143371126    0.3986370110         -0.5245
H209       H    0.0794862691    0.0138094895    0.4091673590          0.4548
O210       O    0.0419055539    0.0215602545    0.3952077638          0.4461
C211       C   -0.0098612963   -0.0051105020    0.2112950726          0.4649
C212       C    0.0101719299   -0.0036401096    0.1873082230          0.4655
N213       N    0.0297415306    0.0150833676    0.1984551349          0.4524
N214       N    0.0283468676    0.0153122028    0.2276385592          0.4518
C215       C    0.0048846892   -0.0009278026    0.1562670047          0.4634
H216       H    0.0208547898    0.0332304710    0.2322883695          0.4372
H217       H    0.0483724192    0.0094303326    0.1939760080          0.4582
H218       H   -0.0221756916   -0.0226038449    0.2105736384         -0.5224
H219       H    0.0196619705   -0.0228414245    0.1883101200         -0.5188
H220       H   -0.0222776634    0.0123418173    0.2122690369          0.4504
H221       H    0.0210094510   -0.0235848186    0.2301144137         -0.5186
C222       C    0.0253849903    0.0005248671    0.1395442738           0.464
C223       C    0.0232073847    0.0010364074    0.1129660755          0.4637
C224       C   -0.0000000000   -0.0000000000    0.1004138525          0.4629
C225       C   -0.0207295933   -0.0012990772    0.1171812365          0.4622
C226       C   -0.0184935864   -0.0018044601    0.1438173880          0.4624
H227       H    0.0410649579    0.0020441735    0.1013851935          0.4644
H228       H    0.0450296793    0.0009400646    0.1477839083           0.465
H229       H   -0.0362111356   -0.0034106787    0.1555051333          0.4622
H230       H   -0.0404707608   -0.0022982694    0.1092300752          0.4615
loop_
_geom_bond_atom_site_label_1
_geom_bond_atom_site_label_2
_geom_bond_distance
_geom_bond_site_symmetry_2
_ccdc_geom_bond_type
Zn1          O5 1.942       .   S
Zn1          O6 1.922       .   S
Zn1         O10 1.922       .   S
Zn1         O17 1.922       .   S
Zn2          O5 1.942       .   S
Zn2          O7 1.922       .   S
Zn2          O9 1.922       .   S
Zn2         O13 1.922       .   S
Zn3          O5 1.942       .   S
Zn3          O8 1.922       .   S
Zn3         O11 1.922       .   S
Zn3         O14 1.922       .   S
Zn4          O5 1.942       .   S
Zn4         O12 1.922       .   S
Zn4         O15 1.922       .   S
Zn4         O16 1.922       .   S
O6          C18 1.304       .   A
O7          C19 1.304       .   A
O8          C20 1.304       .   A
O9          C18 1.304       .   A
O10         C20 1.304       .   A
O11         C19 1.304       .   A
O12         C21 1.304       .   A
O13         C22 1.304       .   A
O14         C21 1.304       .   A
O15         C22 1.304       .   A
O16         C23 1.304       .   A
O17         C23 1.304       .   A
C18        C369 1.540       .   S
C19        C316 1.540       .   S
C20        C224 1.540       .   S
C21        C454 1.540       .   S
C22        C270 1.540       .   S
C23        C323 1.540       .   S
Zn24        O28 1.942       .   S
Zn24        O29 1.922       .   S
Zn24        O33 1.922       .   S
Zn24        O40 1.922       .   S
Zn25        O28 1.942       .   S
Zn25        O30 1.922       .   S
Zn25        O32 1.922       .   S
Zn25        O36 1.922       .   S
Zn26        O28 1.942       .   S
Zn26        O31 1.922       .   S
Zn26        O34 1.922       .   S
Zn26        O37 1.922       .   S
Zn27        O28 1.942       .   S
Zn27        O35 1.922       .   S
Zn27        O38 1.922       .   S
Zn27        O39 1.922       .   S
O29         C41 1.304       .   A
O30         C42 1.304       .   A
O31         C43 1.304       .   A
O32         C41 1.304       .   A
O33         C43 1.304       .   A
O34         C42 1.304       .   A
O35         C44 1.304       .   A
O36         C45 1.304       .   A
O37         C44 1.304       .   A
O38         C45 1.304       .   A
O39         C46 1.304       .   A
O40         C46 1.304       .   A
C41        C185 1.540   1_655   S
C42        C461 1.540       .   S
C43        C592 1.540       .   S
C44        C231 1.540   1_656   S
C45        C638 1.540       .   S
C46        C507 1.540       .   S
Zn47        O51 1.942       .   S
Zn47        O52 1.922       .   S
Zn47        O56 1.922       .   S
Zn47        O63 1.922       .   S
Zn48        O51 1.942       .   S
Zn48        O53 1.922       .   S
Zn48        O55 1.922       .   S
Zn48        O59 1.922       .   S
Zn49        O51 1.942       .   S
Zn49        O54 1.922       .   S
Zn49        O57 1.922       .   S
Zn49        O60 1.922       .   S
Zn50        O51 1.942       .   S
Zn50        O58 1.922       .   S
Zn50        O61 1.922       .   S
Zn50        O62 1.922       .   S
O52         C64 1.304       .   A
O53         C65 1.304       .   A
O54         C66 1.304       .   A
O55         C64 1.304       .   A
O56         C66 1.304       .   A
O57         C65 1.304       .   A
O58         C67 1.304       .   A
O59         C68 1.304       .   A
O60         C67 1.304       .   A
O61         C68 1.304       .   A
O62         C69 1.304       .   A
O63         C69 1.304       .   A
C64        C408 1.540   1_655   S
C65        C684 1.540       .   S
C66        C737 1.540       .   S
C67        C415 1.540   1_665   S
C68        C822 1.540       .   S
C69        C730 1.540       .   S
Zn70        O74 1.942       .   S
Zn70        O75 1.922       .   S
Zn70        O79 1.922       .   S
Zn70        O86 1.922       .   S
Zn71        O74 1.942       .   S
Zn71        O76 1.922       .   S
Zn71        O78 1.922       .   S
Zn71        O82 1.922       .   S
Zn72        O74 1.942       .   S
Zn72        O77 1.922       .   S
Zn72        O80 1.922       .   S
Zn72        O83 1.922       .   S
Zn73        O74 1.942       .   S
Zn73        O81 1.922       .   S
Zn73        O84 1.922       .   S
Zn73        O85 1.922       .   S
O75         C87 1.304       .   A
O76         C88 1.304       .   A
O77         C89 1.304       .   A
O78         C87 1.304       .   A
O79         C89 1.304       .   A
O80         C88 1.304       .   A
O81         C90 1.304       .   A
O82         C91 1.304       .   A
O83         C90 1.304       .   A
O84         C91 1.304       .   A
O85         C92 1.304       .   A
O86         C92 1.304       .   A
C87        C553 1.540       .   S
C88        C645 1.540       .   S
C89        C875 1.540       .   S
C90        C599 1.540   1_565   S
C91        C829 1.540       .   S
C92        C691 1.540   1_556   S
Zn93        O97 1.942       .   S
Zn93        O98 1.922       .   S
Zn93       O102 1.922       .   S
Zn93       O109 1.922       .   S
Zn94        O97 1.942       .   S
Zn94        O99 1.922       .   S
Zn94       O101 1.922       .   S
Zn94       O105 1.922       .   S
Zn95        O97 1.942       .   S
Zn95       O100 1.922       .   S
Zn95       O103 1.922       .   S
Zn95       O106 1.922       .   S
Zn96        O97 1.942       .   S
Zn96       O104 1.922       .   S
Zn96       O107 1.922       .   S
Zn96       O108 1.922       .   S
O98        C110 1.304       .   A
O99        C111 1.304       .   A
O100       C112 1.304       .   A
O101       C110 1.304       .   A
O102       C112 1.304       .   A
O103       C111 1.304       .   A
O104       C113 1.304       .   A
O105       C114 1.304       .   A
O106       C113 1.304       .   A
O107       C114 1.304       .   A
O108       C115 1.304       .   A
O109       C115 1.304       .   A
C110       C277 1.540   1_565   S
C111       C921 1.540       .   S
C112      C1098 1.540       .   S
C113       C362 1.540   1_665   S
C114      C1052 1.540       .   S
C115       C967 1.540       .   S
Zn116      O120 1.942       .   S
Zn116      O121 1.922       .   S
Zn116      O125 1.922       .   S
Zn116      O132 1.922       .   S
Zn117      O120 1.942       .   S
Zn117      O122 1.922       .   S
Zn117      O124 1.922       .   S
Zn117      O128 1.922       .   S
Zn118      O120 1.942       .   S
Zn118      O123 1.922       .   S
Zn118      O126 1.922       .   S
Zn118      O129 1.922       .   S
Zn119      O120 1.942       .   S
Zn119      O127 1.922       .   S
Zn119      O130 1.922       .   S
Zn119      O131 1.922       .   S
O121       C133 1.304       .   A
O122       C134 1.304       .   A
O123       C135 1.304       .   A
O124       C133 1.304       .   A
O125       C135 1.304       .   A
O126       C134 1.304       .   A
O127       C136 1.304       .   A
O128       C137 1.304       .   A
O129       C136 1.304       .   A
O130       C137 1.304       .   A
O131       C138 1.304       .   A
O132       C138 1.304       .   A
C133       C500 1.540   1_465   S
C134       C960 1.540       .   S
C135      C1105 1.540       .   S
C136       C546 1.540   1_565   S
C137      C1151 1.540       .   S
C138      C1006 1.540   1_556   S
Zn139      O143 1.942       .   S
Zn139      O144 1.922       .   S
Zn139      O148 1.922       .   S
Zn139      O155 1.922       .   S
Zn140      O143 1.942       .   S
Zn140      O145 1.922       .   S
Zn140      O147 1.922       .   S
Zn140      O151 1.922       .   S
Zn141      O143 1.942       .   S
Zn141      O146 1.922       .   S
Zn141      O149 1.922       .   S
Zn141      O152 1.922       .   S
Zn142      O143 1.942       .   S
Zn142      O150 1.922       .   S
Zn142      O153 1.922       .   S
Zn142      O154 1.922       .   S
O144       C156 1.304       .   A
O145       C157 1.304       .   A
O146       C158 1.304       .   A
O147       C156 1.304       .   A
O148       C158 1.304       .   A
O149       C157 1.304       .   A
O150       C159 1.304       .   A
O151       C160 1.304       .   A
O152       C159 1.304       .   A
O153       C160 1.304       .   A
O154       C161 1.304       .   A
O155       C161 1.304       .   A
C156       C776 1.540   1_455   S
C157      C1013 1.540   1_545   S
C158      C1282 1.540       .   S
C159       C783 1.540       .   S
C160      C1197 1.540       .   S
C161      C1059 1.540       .   S
Zn162      O166 1.942       .   S
Zn162      O167 1.922       .   S
Zn162      O171 1.922       .   S
Zn162      O178 1.922       .   S
Zn163      O166 1.942       .   S
Zn163      O168 1.922       .   S
Zn163      O170 1.922       .   S
Zn163      O174 1.922       .   S
Zn164      O166 1.942       .   S
Zn164      O169 1.922       .   S
Zn164      O172 1.922       .   S
Zn164      O175 1.922       .   S
Zn165      O166 1.942       .   S
Zn165      O173 1.922       .   S
Zn165      O176 1.922       .   S
Zn165      O177 1.922       .   S
O167       C179 1.304       .   A
O168       C180 1.304       .   A
O169       C181 1.304       .   A
O170       C179 1.304       .   A
O171       C181 1.304       .   A
O172       C180 1.304       .   A
O173       C182 1.304       .   A
O174       C183 1.304       .   A
O175       C182 1.304       .   A
O176       C183 1.304       .   A
O177       C184 1.304       .   A
O178       C184 1.304       .   A
C179       C868 1.540   1_455   S
C180      C1243 1.540   1_556   S
C181      C1144 1.540   1_545   S
C182       C914 1.540       .   S
C183      C1190 1.540       .   S
C184      C1236 1.540       .   S
C1243     C1244 0.021       .   A
C1243     C1248 0.021       .   A
C1244     C1245 0.021       .   A
C1244     O1268 0.021       .   A
C1245     C1246 0.021       .   A
C1245     H1250 0.017       .   A
C1246     C1247 0.021       .   A
C1246     C1249 0.025       .   A
C1247     C1248 0.021       .   A
C1247     H1253 0.017       .   A
C1248     H1252 0.017       .   A
C1249     O1254 0.023       .   A
C1249     C1256 0.023       .   A
C1249     H1264 0.017       .   A
C1251     H1265 0.017       .   A
C1251     H1266 0.017       .   A
C1251     H1267 0.017       .   A
C1251     O1268 0.022       .   A
O1254     C1263 0.023       .   A
C1255     C1256 0.024       .   A
C1255     H1259 0.017       .   A
C1255     H1260 0.017       .   A
C1255     C1263 0.024       .   A
C1256     H1258 0.017       .   A
C1256     H1261 0.017       .   A
C1257     C1263 0.025       .   A
C1257     C1269 0.024       .   A
C1257     N1272 0.023       .   A
C1257     H1279 0.017       .   A
H1262     C1263 0.017       .   A
C1269     C1270 0.024       .   A
C1269     H1276 0.017       .   A
C1269     H1278 0.017       .   A
C1270     N1271 0.023       .   A
C1270     C1273 0.025       .   A
C1270     H1277 0.017       .   A
N1271     N1272 0.023       .   A
N1271     H1275 0.016       .   A
N1272     H1274 0.016       .   A
C1273     C1280 0.021       .   A
C1273     C1284 0.021       .   A
C1280     C1281 0.021       .   A
C1280     H1286 0.017       .   A
C1281     C1282 0.021       .   A
C1281     H1285 0.017       .   A
C1282     C1283 0.021       .   A
C1283     C1284 0.021       .   A
C1283     H1288 0.017       .   A
C1284     H1287 0.017       .   A
C1197     C1198 0.021       .   A
C1197     C1202 0.021       .   A
C1198     C1199 0.021       .   A
C1198     O1222 0.021       .   A
C1199     C1200 0.021       .   A
C1199     H1204 0.017       .   A
C1200     C1201 0.021       .   A
C1200     C1203 0.025       .   A
C1201     C1202 0.021       .   A
C1201     H1207 0.017       .   A
C1202     H1206 0.017       .   A
C1203     O1208 0.023       .   A
C1203     C1210 0.023       .   A
C1203     H1218 0.017       .   A
C1205     H1219 0.017       .   A
C1205     H1220 0.017       .   A
C1205     H1221 0.017       .   A
C1205     O1222 0.022       .   A
O1208     C1217 0.023       .   A
C1209     C1210 0.024       .   A
C1209     H1213 0.017       .   A
C1209     H1214 0.017       .   A
C1209     C1217 0.024       .   A
C1210     H1212 0.017       .   A
C1210     H1215 0.017       .   A
C1211     C1217 0.025       .   A
C1211     C1223 0.024       .   A
C1211     N1226 0.023       .   A
C1211     H1233 0.017       .   A
H1216     C1217 0.017       .   A
C1223     C1224 0.024       .   A
C1223     H1230 0.017       .   A
C1223     H1232 0.017       .   A
C1224     N1225 0.023       .   A
C1224     C1227 0.025       .   A
C1224     H1231 0.017       .   A
N1225     N1226 0.023       .   A
N1225     H1229 0.016       .   A
N1226     H1228 0.016       .   A
C1227     C1234 0.021       .   A
C1227     C1238 0.021       .   A
C1234     C1235 0.021       .   A
C1234     H1240 0.017       .   A
C1235     C1236 0.021       .   A
C1235     H1239 0.017       .   A
C1236     C1237 0.021       .   A
C1237     C1238 0.021       .   A
C1237     H1242 0.017       .   A
C1238     H1241 0.017       .   A
C1151     C1152 0.021       .   A
C1151     C1156 0.021       .   A
C1152     C1153 0.021       .   A
C1152     O1176 0.021       .   A
C1153     C1154 0.021       .   A
C1153     H1158 0.017       .   A
C1154     C1155 0.021       .   A
C1154     C1157 0.025       .   A
C1155     C1156 0.021       .   A
C1155     H1161 0.017       .   A
C1156     H1160 0.017       .   A
C1157     O1162 0.023       .   A
C1157     C1164 0.023       .   A
C1157     H1172 0.017       .   A
C1159     H1173 0.017       .   A
C1159     H1174 0.017       .   A
C1159     H1175 0.017       .   A
C1159     O1176 0.022       .   A
O1162     C1171 0.023       .   A
C1163     C1164 0.024       .   A
C1163     H1167 0.017       .   A
C1163     H1168 0.017       .   A
C1163     C1171 0.024       .   A
C1164     H1166 0.017       .   A
C1164     H1169 0.017       .   A
C1165     C1171 0.025       .   A
C1165     C1177 0.024       .   A
C1165     N1180 0.023       .   A
C1165     H1187 0.017       .   A
H1170     C1171 0.017       .   A
C1177     C1178 0.024       .   A
C1177     H1184 0.017       .   A
C1177     H1186 0.017       .   A
C1178     N1179 0.023       .   A
C1178     C1181 0.025       .   A
C1178     H1185 0.017       .   A
N1179     N1180 0.023       .   A
N1179     H1183 0.016       .   A
N1180     H1182 0.016       .   A
C1181     C1188 0.021       .   A
C1181     C1192 0.021       .   A
C1188     C1189 0.021       .   A
C1188     H1194 0.017       .   A
C1189     C1190 0.021       .   A
C1189     H1193 0.017       .   A
C1190     C1191 0.021       .   A
C1191     C1192 0.021       .   A
C1191     H1196 0.017       .   A
C1192     H1195 0.017       .   A
C1105     C1106 0.021       .   A
C1105     C1110 0.021       .   A
C1106     C1107 0.021       .   A
C1106     O1130 0.021       .   A
C1107     C1108 0.021       .   A
C1107     H1112 0.017       .   A
C1108     C1109 0.021       .   A
C1108     C1111 0.025       .   A
C1109     C1110 0.021       .   A
C1109     H1115 0.017       .   A
C1110     H1114 0.017       .   A
C1111     O1116 0.023       .   A
C1111     C1118 0.023       .   A
C1111     H1126 0.017       .   A
C1113     H1127 0.017       .   A
C1113     H1128 0.017       .   A
C1113     H1129 0.017       .   A
C1113     O1130 0.022       .   A
O1116     C1125 0.023       .   A
C1117     C1118 0.024       .   A
C1117     H1121 0.017       .   A
C1117     H1122 0.017       .   A
C1117     C1125 0.024       .   A
C1118     H1120 0.017       .   A
C1118     H1123 0.017       .   A
C1119     C1125 0.025       .   A
C1119     C1131 0.024       .   A
C1119     N1134 0.023       .   A
C1119     H1141 0.017       .   A
H1124     C1125 0.017       .   A
C1131     C1132 0.024       .   A
C1131     H1138 0.017       .   A
C1131     H1140 0.017       .   A
C1132     N1133 0.023       .   A
C1132     C1135 0.025       .   A
C1132     H1139 0.017       .   A
N1133     N1134 0.023       .   A
N1133     H1137 0.016       .   A
N1134     H1136 0.016       .   A
C1135     C1142 0.021       .   A
C1135     C1146 0.021       .   A
C1142     C1143 0.021       .   A
C1142     H1148 0.017       .   A
C1143     C1144 0.021       .   A
C1143     H1147 0.017       .   A
C1144     C1145 0.021       .   A
C1145     C1146 0.021       .   A
C1145     H1150 0.017       .   A
C1146     H1149 0.017       .   A
C1059     C1060 0.021       .   A
C1059     C1064 0.021       .   A
C1060     C1061 0.021       .   A
C1060     O1084 0.021       .   A
C1061     C1062 0.021       .   A
C1061     H1066 0.017       .   A
C1062     C1063 0.021       .   A
C1062     C1065 0.025       .   A
C1063     C1064 0.021       .   A
C1063     H1069 0.017       .   A
C1064     H1068 0.017       .   A
C1065     O1070 0.023       .   A
C1065     C1072 0.023       .   A
C1065     H1080 0.017       .   A
C1067     H1081 0.017       .   A
C1067     H1082 0.017       .   A
C1067     H1083 0.017       .   A
C1067     O1084 0.022       .   A
O1070     C1079 0.023       .   A
C1071     C1072 0.024       .   A
C1071     H1075 0.017       .   A
C1071     H1076 0.017       .   A
C1071     C1079 0.024       .   A
C1072     H1074 0.017       .   A
C1072     H1077 0.017       .   A
C1073     C1079 0.025       .   A
C1073     C1085 0.024       .   A
C1073     N1088 0.023       .   A
C1073     H1095 0.017       .   A
H1078     C1079 0.017       .   A
C1085     C1086 0.024       .   A
C1085     H1092 0.017       .   A
C1085     H1094 0.017       .   A
C1086     N1087 0.023       .   A
C1086     C1089 0.025       .   A
C1086     H1093 0.017       .   A
N1087     N1088 0.023       .   A
N1087     H1091 0.016       .   A
N1088     H1090 0.016       .   A
C1089     C1096 0.021       .   A
C1089     C1100 0.021       .   A
C1096     C1097 0.021       .   A
C1096     H1102 0.017       .   A
C1097     C1098 0.021       .   A
C1097     H1101 0.017       .   A
C1098     C1099 0.021       .   A
C1099     C1100 0.021       .   A
C1099     H1104 0.017       .   A
C1100     H1103 0.017       .   A
C1013     C1014 0.021       .   A
C1013     C1018 0.021       .   A
C1014     C1015 0.021       .   A
C1014     O1038 0.021       .   A
C1015     C1016 0.021       .   A
C1015     H1020 0.017       .   A
C1016     C1017 0.021       .   A
C1016     C1019 0.025       .   A
C1017     C1018 0.021       .   A
C1017     H1023 0.017       .   A
C1018     H1022 0.017       .   A
C1019     O1024 0.023       .   A
C1019     C1026 0.023       .   A
C1019     H1034 0.017       .   A
C1021     H1035 0.017       .   A
C1021     H1036 0.017       .   A
C1021     H1037 0.017       .   A
C1021     O1038 0.022       .   A
O1024     C1033 0.023       .   A
C1025     C1026 0.024       .   A
C1025     H1029 0.017       .   A
C1025     H1030 0.017       .   A
C1025     C1033 0.024       .   A
C1026     H1028 0.017       .   A
C1026     H1031 0.017       .   A
C1027     C1033 0.025       .   A
C1027     C1039 0.024       .   A
C1027     N1042 0.023       .   A
C1027     H1049 0.017       .   A
H1032     C1033 0.017       .   A
C1039     C1040 0.024       .   A
C1039     H1046 0.017       .   A
C1039     H1048 0.017       .   A
C1040     N1041 0.023       .   A
C1040     C1043 0.025       .   A
C1040     H1047 0.017       .   A
N1041     N1042 0.023       .   A
N1041     H1045 0.016       .   A
N1042     H1044 0.016       .   A
C1043     C1050 0.021       .   A
C1043     C1054 0.021       .   A
C1050     C1051 0.021       .   A
C1050     H1056 0.017       .   A
C1051     C1052 0.021       .   A
C1051     H1055 0.017       .   A
C1052     C1053 0.021       .   A
C1053     C1054 0.021       .   A
C1053     H1058 0.017       .   A
C1054     H1057 0.017       .   A
C967       C968 0.021       .   A
C967       C972 0.021       .   A
C968       C969 0.021       .   A
C968       O992 0.021       .   A
C969       C970 0.021       .   A
C969       H974 0.017       .   A
C970       C971 0.021       .   A
C970       C973 0.025       .   A
C971       C972 0.021       .   A
C971       H977 0.017       .   A
C972       H976 0.017       .   A
C973       O978 0.023       .   A
C973       C980 0.023       .   A
C973       H988 0.017       .   A
C975       H989 0.017       .   A
C975       H990 0.017       .   A
C975       H991 0.017       .   A
C975       O992 0.022       .   A
O978       C987 0.023       .   A
C979       C980 0.024       .   A
C979       H983 0.017       .   A
C979       H984 0.017       .   A
C979       C987 0.024       .   A
C980       H982 0.017       .   A
C980       H985 0.017       .   A
C981       C987 0.025       .   A
C981       C993 0.024       .   A
C981       N996 0.023       .   A
C981      H1003 0.017       .   A
H986       C987 0.017       .   A
C993       C994 0.024       .   A
C993      H1000 0.017       .   A
C993      H1002 0.017       .   A
C994       N995 0.023       .   A
C994       C997 0.025       .   A
C994      H1001 0.017       .   A
N995       N996 0.023       .   A
N995       H999 0.016       .   A
N996       H998 0.016       .   A
C997      C1004 0.021       .   A
C997      C1008 0.021       .   A
C1004     C1005 0.021       .   A
C1004     H1010 0.017       .   A
C1005     C1006 0.021       .   A
C1005     H1009 0.017       .   A
C1006     C1007 0.021       .   A
C1007     C1008 0.021       .   A
C1007     H1012 0.017       .   A
C1008     H1011 0.017       .   A
C921       C922 0.021       .   A
C921       C926 0.021       .   A
C922       C923 0.021       .   A
C922       O946 0.021       .   A
C923       C924 0.021       .   A
C923       H928 0.017       .   A
C924       C925 0.021       .   A
C924       C927 0.025       .   A
C925       C926 0.021       .   A
C925       H931 0.017       .   A
C926       H930 0.017       .   A
C927       O932 0.023       .   A
C927       C934 0.023       .   A
C927       H942 0.017       .   A
C929       H943 0.017       .   A
C929       H944 0.017       .   A
C929       H945 0.017       .   A
C929       O946 0.022       .   A
O932       C941 0.023       .   A
C933       C934 0.024       .   A
C933       H937 0.017       .   A
C933       H938 0.017       .   A
C933       C941 0.024       .   A
C934       H936 0.017       .   A
C934       H939 0.017       .   A
C935       C941 0.025       .   A
C935       C947 0.024       .   A
C935       N950 0.023       .   A
C935       H957 0.017       .   A
H940       C941 0.017       .   A
C947       C948 0.024       .   A
C947       H954 0.017       .   A
C947       H956 0.017       .   A
C948       N949 0.023       .   A
C948       C951 0.025       .   A
C948       H955 0.017       .   A
N949       N950 0.023       .   A
N949       H953 0.016       .   A
N950       H952 0.016       .   A
C951       C958 0.021       .   A
C951       C962 0.021       .   A
C958       C959 0.021       .   A
C958       H964 0.017       .   A
C959       C960 0.021       .   A
C959       H963 0.017       .   A
C960       C961 0.021       .   A
C961       C962 0.021       .   A
C961       H966 0.017       .   A
C962       H965 0.017       .   A
C875       C876 0.021       .   A
C875       C880 0.021       .   A
C876       C877 0.021       .   A
C876       O900 0.021       .   A
C877       C878 0.021       .   A
C877       H882 0.017       .   A
C878       C879 0.021       .   A
C878       C881 0.025       .   A
C879       C880 0.021       .   A
C879       H885 0.017       .   A
C880       H884 0.017       .   A
C881       O886 0.023       .   A
C881       C888 0.023       .   A
C881       H896 0.017       .   A
C883       H897 0.017       .   A
C883       H898 0.017       .   A
C883       H899 0.017       .   A
C883       O900 0.022       .   A
O886       C895 0.023       .   A
C887       C888 0.024       .   A
C887       H891 0.017       .   A
C887       H892 0.017       .   A
C887       C895 0.024       .   A
C888       H890 0.017       .   A
C888       H893 0.017       .   A
C889       C895 0.025       .   A
C889       C901 0.024       .   A
C889       N904 0.023       .   A
C889       H911 0.017       .   A
H894       C895 0.017       .   A
C901       C902 0.024       .   A
C901       H908 0.017       .   A
C901       H910 0.017       .   A
C902       N903 0.023       .   A
C902       C905 0.025       .   A
C902       H909 0.017       .   A
N903       N904 0.023       .   A
N903       H907 0.016       .   A
N904       H906 0.016       .   A
C905       C912 0.021       .   A
C905       C916 0.021       .   A
C912       C913 0.021       .   A
C912       H918 0.017       .   A
C913       C914 0.021       .   A
C913       H917 0.017       .   A
C914       C915 0.021       .   A
C915       C916 0.021       .   A
C915       H920 0.017       .   A
C916       H919 0.017       .   A
C829       C830 0.021       .   A
C829       C834 0.021       .   A
C830       C831 0.021       .   A
C830       O854 0.021       .   A
C831       C832 0.021       .   A
C831       H836 0.017       .   A
C832       C833 0.021       .   A
C832       C835 0.025       .   A
C833       C834 0.021       .   A
C833       H839 0.017       .   A
C834       H838 0.017       .   A
C835       O840 0.023       .   A
C835       C842 0.023       .   A
C835       H850 0.017       .   A
C837       H851 0.017       .   A
C837       H852 0.017       .   A
C837       H853 0.017       .   A
C837       O854 0.022       .   A
O840       C849 0.023       .   A
C841       C842 0.024       .   A
C841       H845 0.017       .   A
C841       H846 0.017       .   A
C841       C849 0.024       .   A
C842       H844 0.017       .   A
C842       H847 0.017       .   A
C843       C849 0.025       .   A
C843       C855 0.024       .   A
C843       N858 0.023       .   A
C843       H865 0.017       .   A
H848       C849 0.017       .   A
C855       C856 0.024       .   A
C855       H862 0.017       .   A
C855       H864 0.017       .   A
C856       N857 0.023       .   A
C856       C859 0.025       .   A
C856       H863 0.017       .   A
N857       N858 0.023       .   A
N857       H861 0.016       .   A
N858       H860 0.016       .   A
C859       C866 0.021       .   A
C859       C870 0.021       .   A
C866       C867 0.021       .   A
C866       H872 0.017       .   A
C867       C868 0.021       .   A
C867       H871 0.017       .   A
C868       C869 0.021       .   A
C869       C870 0.021       .   A
C869       H874 0.017       .   A
C870       H873 0.017       .   A
C783       C784 0.021       .   A
C783       C788 0.021       .   A
C784       C785 0.021       .   A
C784       O808 0.021       .   A
C785       C786 0.021       .   A
C785       H790 0.017       .   A
C786       C787 0.021       .   A
C786       C789 0.025       .   A
C787       C788 0.021       .   A
C787       H793 0.017       .   A
C788       H792 0.017       .   A
C789       O794 0.023       .   A
C789       C796 0.023       .   A
C789       H804 0.017       .   A
C791       H805 0.017       .   A
C791       H806 0.017       .   A
C791       H807 0.017       .   A
C791       O808 0.022       .   A
O794       C803 0.023       .   A
C795       C796 0.024       .   A
C795       H799 0.017       .   A
C795       H800 0.017       .   A
C795       C803 0.024       .   A
C796       H798 0.017       .   A
C796       H801 0.017       .   A
C797       C803 0.025       .   A
C797       C809 0.024       .   A
C797       N812 0.023       .   A
C797       H819 0.017       .   A
H802       C803 0.017       .   A
C809       C810 0.024       .   A
C809       H816 0.017       .   A
C809       H818 0.017       .   A
C810       N811 0.023       .   A
C810       C813 0.025       .   A
C810       H817 0.017       .   A
N811       N812 0.023       .   A
N811       H815 0.016       .   A
N812       H814 0.016       .   A
C813       C820 0.021       .   A
C813       C824 0.021       .   A
C820       C821 0.021       .   A
C820       H826 0.017       .   A
C821       C822 0.021       .   A
C821       H825 0.017       .   A
C822       C823 0.021       .   A
C823       C824 0.021       .   A
C823       H828 0.017       .   A
C824       H827 0.017       .   A
C737       C738 0.021       .   A
C737       C742 0.021       .   A
C738       C739 0.021       .   A
C738       O762 0.021       .   A
C739       C740 0.021       .   A
C739       H744 0.017       .   A
C740       C741 0.021       .   A
C740       C743 0.025       .   A
C741       C742 0.021       .   A
C741       H747 0.017       .   A
C742       H746 0.017       .   A
C743       O748 0.023       .   A
C743       C750 0.023       .   A
C743       H758 0.017       .   A
C745       H759 0.017       .   A
C745       H760 0.017       .   A
C745       H761 0.017       .   A
C745       O762 0.022       .   A
O748       C757 0.023       .   A
C749       C750 0.024       .   A
C749       H753 0.017       .   A
C749       H754 0.017       .   A
C749       C757 0.024       .   A
C750       H752 0.017       .   A
C750       H755 0.017       .   A
C751       C757 0.025       .   A
C751       C763 0.024       .   A
C751       N766 0.023       .   A
C751       H773 0.017       .   A
H756       C757 0.017       .   A
C763       C764 0.024       .   A
C763       H770 0.017       .   A
C763       H772 0.017       .   A
C764       N765 0.023       .   A
C764       C767 0.025       .   A
C764       H771 0.017       .   A
N765       N766 0.023       .   A
N765       H769 0.016       .   A
N766       H768 0.016       .   A
C767       C774 0.021       .   A
C767       C778 0.021       .   A
C774       C775 0.021       .   A
C774       H780 0.017       .   A
C775       C776 0.021       .   A
C775       H779 0.017       .   A
C776       C777 0.021       .   A
C777       C778 0.021       .   A
C777       H782 0.017       .   A
C778       H781 0.017       .   A
C691       C692 0.021       .   A
C691       C696 0.021       .   A
C692       C693 0.021       .   A
C692       O716 0.021       .   A
C693       C694 0.021       .   A
C693       H698 0.017       .   A
C694       C695 0.021       .   A
C694       C697 0.025       .   A
C695       C696 0.021       .   A
C695       H701 0.017       .   A
C696       H700 0.017       .   A
C697       O702 0.023       .   A
C697       C704 0.023       .   A
C697       H712 0.017       .   A
C699       H713 0.017       .   A
C699       H714 0.017       .   A
C699       H715 0.017       .   A
C699       O716 0.022       .   A
O702       C711 0.023       .   A
C703       C704 0.024       .   A
C703       H707 0.017       .   A
C703       H708 0.017       .   A
C703       C711 0.024       .   A
C704       H706 0.017       .   A
C704       H709 0.017       .   A
C705       C711 0.025       .   A
C705       C717 0.024       .   A
C705       N720 0.023       .   A
C705       H727 0.017       .   A
H710       C711 0.017       .   A
C717       C718 0.024       .   A
C717       H724 0.017       .   A
C717       H726 0.017       .   A
C718       N719 0.023       .   A
C718       C721 0.025       .   A
C718       H725 0.017       .   A
N719       N720 0.023       .   A
N719       H723 0.016       .   A
N720       H722 0.016       .   A
C721       C728 0.021       .   A
C721       C732 0.021       .   A
C728       C729 0.021       .   A
C728       H734 0.017       .   A
C729       C730 0.021       .   A
C729       H733 0.017       .   A
C730       C731 0.021       .   A
C731       C732 0.021       .   A
C731       H736 0.017       .   A
C732       H735 0.017       .   A
C645       C646 0.021       .   A
C645       C650 0.021       .   A
C646       C647 0.021       .   A
C646       O670 0.021       .   A
C647       C648 0.021       .   A
C647       H652 0.017       .   A
C648       C649 0.021       .   A
C648       C651 0.025       .   A
C649       C650 0.021       .   A
C649       H655 0.017       .   A
C650       H654 0.017       .   A
C651       O656 0.023       .   A
C651       C658 0.023       .   A
C651       H666 0.017       .   A
C653       H667 0.017       .   A
C653       H668 0.017       .   A
C653       H669 0.017       .   A
C653       O670 0.022       .   A
O656       C665 0.023       .   A
C657       C658 0.024       .   A
C657       H661 0.017       .   A
C657       H662 0.017       .   A
C657       C665 0.024       .   A
C658       H660 0.017       .   A
C658       H663 0.017       .   A
C659       C665 0.025       .   A
C659       C671 0.024       .   A
C659       N674 0.023       .   A
C659       H681 0.017       .   A
H664       C665 0.017       .   A
C671       C672 0.024       .   A
C671       H678 0.017       .   A
C671       H680 0.017       .   A
C672       N673 0.023       .   A
C672       C675 0.025       .   A
C672       H679 0.017       .   A
N673       N674 0.023       .   A
N673       H677 0.016       .   A
N674       H676 0.016       .   A
C675       C682 0.021       .   A
C675       C686 0.021       .   A
C682       C683 0.021       .   A
C682       H688 0.017       .   A
C683       C684 0.021       .   A
C683       H687 0.017       .   A
C684       C685 0.021       .   A
C685       C686 0.021       .   A
C685       H690 0.017       .   A
C686       H689 0.017       .   A
C599       C600 0.021       .   A
C599       C604 0.021       .   A
C600       C601 0.021       .   A
C600       O624 0.021       .   A
C601       C602 0.021       .   A
C601       H606 0.017       .   A
C602       C603 0.021       .   A
C602       C605 0.025       .   A
C603       C604 0.021       .   A
C603       H609 0.017       .   A
C604       H608 0.017       .   A
C605       O610 0.023       .   A
C605       C612 0.023       .   A
C605       H620 0.017       .   A
C607       H621 0.017       .   A
C607       H622 0.017       .   A
C607       H623 0.017       .   A
C607       O624 0.022       .   A
O610       C619 0.023       .   A
C611       C612 0.024       .   A
C611       H615 0.017       .   A
C611       H616 0.017       .   A
C611       C619 0.024       .   A
C612       H614 0.017       .   A
C612       H617 0.017       .   A
C613       C619 0.025       .   A
C613       C625 0.024       .   A
C613       N628 0.023       .   A
C613       H635 0.017       .   A
H618       C619 0.017       .   A
C625       C626 0.024       .   A
C625       H632 0.017       .   A
C625       H634 0.017       .   A
C626       N627 0.023       .   A
C626       C629 0.025       .   A
C626       H633 0.017       .   A
N627       N628 0.023       .   A
N627       H631 0.016       .   A
N628       H630 0.016       .   A
C629       C636 0.021       .   A
C629       C640 0.021       .   A
C636       C637 0.021       .   A
C636       H642 0.017       .   A
C637       C638 0.021       .   A
C637       H641 0.017       .   A
C638       C639 0.021       .   A
C639       C640 0.021       .   A
C639       H644 0.017       .   A
C640       H643 0.017       .   A
C553       C554 0.021       .   A
C553       C558 0.021       .   A
C554       C555 0.021       .   A
C554       O578 0.021       .   A
C555       C556 0.021       .   A
C555       H560 0.017       .   A
C556       C557 0.021       .   A
C556       C559 0.025       .   A
C557       C558 0.021       .   A
C557       H563 0.017       .   A
C558       H562 0.017       .   A
C559       O564 0.023       .   A
C559       C566 0.023       .   A
C559       H574 0.017       .   A
C561       H575 0.017       .   A
C561       H576 0.017       .   A
C561       H577 0.017       .   A
C561       O578 0.022       .   A
O564       C573 0.023       .   A
C565       C566 0.024       .   A
C565       H569 0.017       .   A
C565       H570 0.017       .   A
C565       C573 0.024       .   A
C566       H568 0.017       .   A
C566       H571 0.017       .   A
C567       C573 0.025       .   A
C567       C579 0.024       .   A
C567       N582 0.023       .   A
C567       H589 0.017       .   A
H572       C573 0.017       .   A
C579       C580 0.024       .   A
C579       H586 0.017       .   A
C579       H588 0.017       .   A
C580       N581 0.023       .   A
C580       C583 0.025       .   A
C580       H587 0.017       .   A
N581       N582 0.023       .   A
N581       H585 0.016       .   A
N582       H584 0.016       .   A
C583       C590 0.021       .   A
C583       C594 0.021       .   A
C590       C591 0.021       .   A
C590       H596 0.017       .   A
C591       C592 0.021       .   A
C591       H595 0.017       .   A
C592       C593 0.021       .   A
C593       C594 0.021       .   A
C593       H598 0.017       .   A
C594       H597 0.017       .   A
C507       C508 0.021       .   A
C507       C512 0.021       .   A
C508       C509 0.021       .   A
C508       O532 0.021       .   A
C509       C510 0.021       .   A
C509       H514 0.017       .   A
C510       C511 0.021       .   A
C510       C513 0.025       .   A
C511       C512 0.021       .   A
C511       H517 0.017       .   A
C512       H516 0.017       .   A
C513       O518 0.023       .   A
C513       C520 0.023       .   A
C513       H528 0.017       .   A
C515       H529 0.017       .   A
C515       H530 0.017       .   A
C515       H531 0.017       .   A
C515       O532 0.022       .   A
O518       C527 0.023       .   A
C519       C520 0.024       .   A
C519       H523 0.017       .   A
C519       H524 0.017       .   A
C519       C527 0.024       .   A
C520       H522 0.017       .   A
C520       H525 0.017       .   A
C521       C527 0.025       .   A
C521       C533 0.024       .   A
C521       N536 0.023       .   A
C521       H543 0.017       .   A
H526       C527 0.017       .   A
C533       C534 0.024       .   A
C533       H540 0.017       .   A
C533       H542 0.017       .   A
C534       N535 0.023       .   A
C534       C537 0.025       .   A
C534       H541 0.017       .   A
N535       N536 0.023       .   A
N535       H539 0.016       .   A
N536       H538 0.016       .   A
C537       C544 0.021       .   A
C537       C548 0.021       .   A
C544       C545 0.021       .   A
C544       H550 0.017       .   A
C545       C546 0.021       .   A
C545       H549 0.017       .   A
C546       C547 0.021       .   A
C547       C548 0.021       .   A
C547       H552 0.017       .   A
C548       H551 0.017       .   A
C461       C462 0.021       .   A
C461       C466 0.021       .   A
C462       C463 0.021       .   A
C462       O486 0.021       .   A
C463       C464 0.021       .   A
C463       H468 0.017       .   A
C464       C465 0.021       .   A
C464       C467 0.025       .   A
C465       C466 0.021       .   A
C465       H471 0.017       .   A
C466       H470 0.017       .   A
C467       O472 0.023       .   A
C467       C474 0.023       .   A
C467       H482 0.017       .   A
C469       H483 0.017       .   A
C469       H484 0.017       .   A
C469       H485 0.017       .   A
C469       O486 0.022       .   A
O472       C481 0.023       .   A
C473       C474 0.024       .   A
C473       H477 0.017       .   A
C473       H478 0.017       .   A
C473       C481 0.024       .   A
C474       H476 0.017       .   A
C474       H479 0.017       .   A
C475       C481 0.025       .   A
C475       C487 0.024       .   A
C475       N490 0.023       .   A
C475       H497 0.017       .   A
H480       C481 0.017       .   A
C487       C488 0.024       .   A
C487       H494 0.017       .   A
C487       H496 0.017       .   A
C488       N489 0.023       .   A
C488       C491 0.025       .   A
C488       H495 0.017       .   A
N489       N490 0.023       .   A
N489       H493 0.016       .   A
N490       H492 0.016       .   A
C491       C498 0.021       .   A
C491       C502 0.021       .   A
C498       C499 0.021       .   A
C498       H504 0.017       .   A
C499       C500 0.021       .   A
C499       H503 0.017       .   A
C500       C501 0.021       .   A
C501       C502 0.021       .   A
C501       H506 0.017       .   A
C502       H505 0.017       .   A
C415       C416 0.021       .   A
C415       C420 0.021       .   A
C416       C417 0.021       .   A
C416       O440 0.021       .   A
C417       C418 0.021       .   A
C417       H422 0.017       .   A
C418       C419 0.021       .   A
C418       C421 0.025       .   A
C419       C420 0.021       .   A
C419       H425 0.017       .   A
C420       H424 0.017       .   A
C421       O426 0.023       .   A
C421       C428 0.023       .   A
C421       H436 0.017       .   A
C423       H437 0.017       .   A
C423       H438 0.017       .   A
C423       H439 0.017       .   A
C423       O440 0.022       .   A
O426       C435 0.023       .   A
C427       C428 0.024       .   A
C427       H431 0.017       .   A
C427       H432 0.017       .   A
C427       C435 0.024       .   A
C428       H430 0.017       .   A
C428       H433 0.017       .   A
C429       C435 0.025       .   A
C429       C441 0.024       .   A
C429       N444 0.023       .   A
C429       H451 0.017       .   A
H434       C435 0.017       .   A
C441       C442 0.024       .   A
C441       H448 0.017       .   A
C441       H450 0.017       .   A
C442       N443 0.023       .   A
C442       C445 0.025       .   A
C442       H449 0.017       .   A
N443       N444 0.023       .   A
N443       H447 0.016       .   A
N444       H446 0.016       .   A
C445       C452 0.021       .   A
C445       C456 0.021       .   A
C452       C453 0.021       .   A
C452       H458 0.017       .   A
C453       C454 0.021       .   A
C453       H457 0.017       .   A
C454       C455 0.021       .   A
C455       C456 0.021       .   A
C455       H460 0.017       .   A
C456       H459 0.017       .   A
C369       C370 0.021       .   A
C369       C374 0.021       .   A
C370       C371 0.021       .   A
C370       O394 0.021       .   A
C371       C372 0.021       .   A
C371       H376 0.017       .   A
C372       C373 0.021       .   A
C372       C375 0.025       .   A
C373       C374 0.021       .   A
C373       H379 0.017       .   A
C374       H378 0.017       .   A
C375       O380 0.023       .   A
C375       C382 0.023       .   A
C375       H390 0.017       .   A
C377       H391 0.017       .   A
C377       H392 0.017       .   A
C377       H393 0.017       .   A
C377       O394 0.022       .   A
O380       C389 0.023       .   A
C381       C382 0.024       .   A
C381       H385 0.017       .   A
C381       H386 0.017       .   A
C381       C389 0.024       .   A
C382       H384 0.017       .   A
C382       H387 0.017       .   A
C383       C389 0.025       .   A
C383       C395 0.024       .   A
C383       N398 0.023       .   A
C383       H405 0.017       .   A
H388       C389 0.017       .   A
C395       C396 0.024       .   A
C395       H402 0.017       .   A
C395       H404 0.017       .   A
C396       N397 0.023       .   A
C396       C399 0.025       .   A
C396       H403 0.017       .   A
N397       N398 0.023       .   A
N397       H401 0.016       .   A
N398       H400 0.016       .   A
C399       C406 0.021       .   A
C399       C410 0.021       .   A
C406       C407 0.021       .   A
C406       H412 0.017       .   A
C407       C408 0.021       .   A
C407       H411 0.017       .   A
C408       C409 0.021       .   A
C409       C410 0.021       .   A
C409       H414 0.017       .   A
C410       H413 0.017       .   A
C323       C324 0.021       .   A
C323       C328 0.021       .   A
C324       C325 0.021       .   A
C324       O348 0.021       .   A
C325       C326 0.021       .   A
C325       H330 0.017       .   A
C326       C327 0.021       .   A
C326       C329 0.025       .   A
C327       C328 0.021       .   A
C327       H333 0.017       .   A
C328       H332 0.017       .   A
C329       O334 0.023       .   A
C329       C336 0.023       .   A
C329       H344 0.017       .   A
C331       H345 0.017       .   A
C331       H346 0.017       .   A
C331       H347 0.017       .   A
C331       O348 0.022       .   A
O334       C343 0.023       .   A
C335       C336 0.024       .   A
C335       H339 0.017       .   A
C335       H340 0.017       .   A
C335       C343 0.024       .   A
C336       H338 0.017       .   A
C336       H341 0.017       .   A
C337       C343 0.025       .   A
C337       C349 0.024       .   A
C337       N352 0.023       .   A
C337       H359 0.017       .   A
H342       C343 0.017       .   A
C349       C350 0.024       .   A
C349       H356 0.017       .   A
C349       H358 0.017       .   A
C350       N351 0.023       .   A
C350       C353 0.025       .   A
C350       H357 0.017       .   A
N351       N352 0.023       .   A
N351       H355 0.016       .   A
N352       H354 0.016       .   A
C353       C360 0.021       .   A
C353       C364 0.021       .   A
C360       C361 0.021       .   A
C360       H366 0.017       .   A
C361       C362 0.021       .   A
C361       H365 0.017       .   A
C362       C363 0.021       .   A
C363       C364 0.021       .   A
C363       H368 0.017       .   A
C364       H367 0.017       .   A
C277       C278 0.021       .   A
C277       C282 0.021       .   A
C278       C279 0.021       .   A
C278       O302 0.021       .   A
C279       C280 0.021       .   A
C279       H284 0.017       .   A
C280       C281 0.021       .   A
C280       C283 0.025       .   A
C281       C282 0.021       .   A
C281       H287 0.017       .   A
C282       H286 0.017       .   A
C283       O288 0.023       .   A
C283       C290 0.023       .   A
C283       H298 0.017       .   A
C285       H299 0.017       .   A
C285       H300 0.017       .   A
C285       H301 0.017       .   A
C285       O302 0.022       .   A
O288       C297 0.023       .   A
C289       C290 0.024       .   A
C289       H293 0.017       .   A
C289       H294 0.017       .   A
C289       C297 0.024       .   A
C290       H292 0.017       .   A
C290       H295 0.017       .   A
C291       C297 0.025       .   A
C291       C303 0.024       .   A
C291       N306 0.023       .   A
C291       H313 0.017       .   A
H296       C297 0.017       .   A
C303       C304 0.024       .   A
C303       H310 0.017       .   A
C303       H312 0.017       .   A
C304       N305 0.023       .   A
C304       C307 0.025       .   A
C304       H311 0.017       .   A
N305       N306 0.023       .   A
N305       H309 0.016       .   A
N306       H308 0.016       .   A
C307       C314 0.021       .   A
C307       C318 0.021       .   A
C314       C315 0.021       .   A
C314       H320 0.017       .   A
C315       C316 0.021       .   A
C315       H319 0.017       .   A
C316       C317 0.021       .   A
C317       C318 0.021       .   A
C317       H322 0.017       .   A
C318       H321 0.017       .   A
C231       C232 0.021       .   A
C231       C236 0.021       .   A
C232       C233 0.021       .   A
C232       O256 0.021       .   A
C233       C234 0.021       .   A
C233       H238 0.017       .   A
C234       C235 0.021       .   A
C234       C237 0.025       .   A
C235       C236 0.021       .   A
C235       H241 0.017       .   A
C236       H240 0.017       .   A
C237       O242 0.023       .   A
C237       C244 0.023       .   A
C237       H252 0.017       .   A
C239       H253 0.017       .   A
C239       H254 0.017       .   A
C239       H255 0.017       .   A
C239       O256 0.022       .   A
O242       C251 0.023       .   A
C243       C244 0.024       .   A
C243       H247 0.017       .   A
C243       H248 0.017       .   A
C243       C251 0.024       .   A
C244       H246 0.017       .   A
C244       H249 0.017       .   A
C245       C251 0.025       .   A
C245       C257 0.024       .   A
C245       N260 0.023       .   A
C245       H267 0.017       .   A
H250       C251 0.017       .   A
C257       C258 0.024       .   A
C257       H264 0.017       .   A
C257       H266 0.017       .   A
C258       N259 0.023       .   A
C258       C261 0.025       .   A
C258       H265 0.017       .   A
N259       N260 0.023       .   A
N259       H263 0.016       .   A
N260       H262 0.016       .   A
C261       C268 0.021       .   A
C261       C272 0.021       .   A
C268       C269 0.021       .   A
C268       H274 0.017       .   A
C269       C270 0.021       .   A
C269       H273 0.017       .   A
C270       C271 0.021       .   A
C271       C272 0.021       .   A
C271       H276 0.017       .   A
C272       H275 0.017       .   A
C185       C186 0.021       .   A
C185       C190 0.021       .   A
C186       C187 0.021       .   A
C186       O210 0.021       .   A
C187       C188 0.021       .   A
C187       H192 0.017       .   A
C188       C189 0.021       .   A
C188       C191 0.025       .   A
C189       C190 0.021       .   A
C189       H195 0.017       .   A
C190       H194 0.017       .   A
C191       O196 0.023       .   A
C191       C198 0.023       .   A
C191       H206 0.017       .   A
C193       H207 0.017       .   A
C193       H208 0.017       .   A
C193       H209 0.017       .   A
C193       O210 0.022       .   A
O196       C205 0.023       .   A
C197       C198 0.024       .   A
C197       H201 0.017       .   A
C197       H202 0.017       .   A
C197       C205 0.024       .   A
C198       H200 0.017       .   A
C198       H203 0.017       .   A
C199       C205 0.025       .   A
C199       C211 0.024       .   A
C199       N214 0.023       .   A
C199       H221 0.017       .   A
H204       C205 0.017       .   A
C211       C212 0.024       .   A
C211       H218 0.017       .   A
C211       H220 0.017       .   A
C212       N213 0.023       .   A
C212       C215 0.025       .   A
C212       H219 0.017       .   A
N213       N214 0.023       .   A
N213       H217 0.016       .   A
N214       H216 0.016       .   A
C215       C222 0.021       .   A
C215       C226 0.021       .   A
C222       C223 0.021       .   A
C222       H228 0.017       .   A
C223       C224 0.021       .   A
C223       H227 0.017       .   A
C224       C225 0.021       .   A
C225       C226 0.021       .   A
C225       H230 0.017       .   A
C226       H229 0.017       .   A
