data_pcu_v1-6c_Zn_1_Ch_1-67_fer_tobacco
_audit_creation_date              2021-04-07
_audit_creation_method            'tobacco_3.0'
_symmetry_space_group_name_H-M    'P1'
_symmetry_Int_Tables_number       1
_symmetry_cell_setting            triclinic
loop_
_symmetry_equiv_pos_as_xyz
  x,y,z
_cell_length_a                    40.1622339454139
_cell_length_b                    40.1622339454139
_cell_length_c                    40.1622339454139
_cell_angle_alpha                 90.0
_cell_angle_beta                  90.0
_cell_angle_gamma                 90.0
loop_
_atom_site_label
_atom_site_type_symbol
_atom_site_fract_x
_atom_site_fract_y
_atom_site_fract_z
_atom_site_charge
Zn1       Zn   -0.0279167738   -0.0279167738   -0.0279167738          1.4972
Zn2       Zn   -0.0279167738    0.0279167738    0.0279167738          1.4936
Zn3       Zn    0.0279167738   -0.0279167738    0.0279167738          1.4911
Zn4       Zn    0.0279167738    0.0279167738   -0.0279167738          1.4948
O5         O    0.0000000000    0.0000000000    0.0000000000         -2.2448
O6         O   -0.0746123835   -0.0205167870   -0.0205167870         -1.1511
O7         O   -0.0205167870    0.0205167870    0.0746123835         -1.1493
O8         O    0.0205167870   -0.0746123835    0.0205167870         -1.1445
O9         O   -0.0746123835    0.0205167870    0.0205167870         -1.1512
O10        O   -0.0205167870   -0.0746123835   -0.0205167870         -1.1472
O11        O    0.0205167870   -0.0205167870    0.0746123835         -1.1531
O12        O    0.0746123835    0.0205167870   -0.0205167870          -1.147
O13        O   -0.0205167870    0.0746123835    0.0205167870         -1.1545
O14        O    0.0746123835   -0.0205167870    0.0205167870         -1.1484
O15        O    0.0205167870    0.0746123835   -0.0205167870         -1.1531
O16        O    0.0205167870    0.0205167870   -0.0746123835         -1.1522
O17        O   -0.0205167870   -0.0205167870   -0.0746123835         -1.1501
C18        C   -0.0892081851    0.0000000000    0.0000000000          0.3678
C19        C    0.0000000000   -0.0000000000    0.0892081851          0.3727
C20        C   -0.0000000000   -0.0892081851   -0.0000000000          0.3623
C21        C    0.0892081851   -0.0000000000   -0.0000000000          0.3661
C22        C    0.0000000000    0.0892081851    0.0000000000          0.3774
C23        C   -0.0000000000    0.0000000000   -0.0892081851          0.3679
Zn24      Zn    1.0279167738    0.0279167738    0.4720832262          1.4972
Zn25      Zn    0.9720832262    0.0279167738    0.5279167738          1.4936
Zn26      Zn    0.9720832262   -0.0279167738    0.4720832262          1.4911
Zn27      Zn    1.0279167738   -0.0279167738    0.5279167738          1.4948
O28        O    1.0000000000    0.0000000000    0.5000000000         -2.2448
O29        O    1.0205167870    0.0746123835    0.4794832130         -1.1511
O30        O    0.9253876165    0.0205167870    0.5205167870         -1.1493
O31        O    0.9794832130   -0.0205167870    0.4253876165         -1.1445
O32        O    0.9794832130    0.0746123835    0.5205167870         -1.1512
O33        O    1.0205167870    0.0205167870    0.4253876165         -1.1472
O34        O    0.9253876165   -0.0205167870    0.4794832130         -1.1531
O35        O    1.0205167870   -0.0746123835    0.5205167870          -1.147
O36        O    0.9794832130    0.0205167870    0.5746123835         -1.1545
O37        O    0.9794832130   -0.0746123835    0.4794832130         -1.1484
O38        O    1.0205167870   -0.0205167870    0.5746123835         -1.1531
O39        O    1.0746123835   -0.0205167870    0.5205167870         -1.1522
O40        O    1.0746123835    0.0205167870    0.4794832130         -1.1501
C41        C    1.0000000000    0.0892081851    0.5000000000          0.3678
C42        C    0.9107918149    0.0000000000    0.5000000000          0.3727
C43        C    1.0000000000    0.0000000000    0.4107918149          0.3623
C44        C    1.0000000000   -0.0892081851    0.5000000000          0.3661
C45        C    1.0000000000    0.0000000000    0.5892081851          0.3774
C46        C    1.0892081851    0.0000000000    0.5000000000          0.3679
Zn47      Zn    1.0279167738    0.4720832262   -0.0279167738          1.4972
Zn48      Zn    0.9720832262    0.4720832262    0.0279167738          1.4936
Zn49      Zn    1.0279167738    0.5279167738    0.0279167738          1.4911
Zn50      Zn    0.9720832262    0.5279167738   -0.0279167738          1.4948
O51        O    1.0000000000    0.5000000000    0.0000000000         -2.2448
O52        O    1.0205167870    0.4253876165   -0.0205167870         -1.1511
O53        O    0.9794832130    0.4794832130    0.0746123835         -1.1493
O54        O    1.0746123835    0.5205167870    0.0205167870         -1.1445
O55        O    0.9794832130    0.4253876165    0.0205167870         -1.1512
O56        O    1.0746123835    0.4794832130   -0.0205167870         -1.1472
O57        O    1.0205167870    0.5205167870    0.0746123835         -1.1531
O58        O    0.9794832130    0.5746123835   -0.0205167870          -1.147
O59        O    0.9253876165    0.4794832130    0.0205167870         -1.1545
O60        O    1.0205167870    0.5746123835    0.0205167870         -1.1484
O61        O    0.9253876165    0.5205167870   -0.0205167870         -1.1531
O62        O    0.9794832130    0.5205167870   -0.0746123835         -1.1522
O63        O    1.0205167870    0.4794832130   -0.0746123835         -1.1501
C64        C    1.0000000000    0.4107918149    0.0000000000          0.3678
C65        C    1.0000000000    0.5000000000    0.0892081851          0.3727
C66        C    1.0892081851    0.5000000000    0.0000000000          0.3623
C67        C    1.0000000000    0.5892081851    0.0000000000          0.3661
C68        C    0.9107918149    0.5000000000    0.0000000000          0.3774
C69        C    1.0000000000    0.5000000000   -0.0892081851          0.3679
Zn70      Zn    0.9720832262    0.4720832262    0.5279167738          1.4972
Zn71      Zn    1.0279167738    0.4720832262    0.4720832262          1.4936
Zn72      Zn    0.9720832262    0.5279167738    0.4720832262          1.4911
Zn73      Zn    1.0279167738    0.5279167738    0.5279167738          1.4948
O74        O    1.0000000000    0.5000000000    0.5000000000         -2.2448
O75        O    0.9794832130    0.4253876165    0.5205167870         -1.1511
O76        O    1.0205167870    0.4794832130    0.4253876165         -1.1493
O77        O    0.9253876165    0.5205167870    0.4794832130         -1.1445
O78        O    1.0205167870    0.4253876165    0.4794832130         -1.1512
O79        O    0.9253876165    0.4794832130    0.5205167870         -1.1472
O80        O    0.9794832130    0.5205167870    0.4253876165         -1.1531
O81        O    1.0205167870    0.5746123835    0.5205167870          -1.147
O82        O    1.0746123835    0.4794832130    0.4794832130         -1.1545
O83        O    0.9794832130    0.5746123835    0.4794832130         -1.1484
O84        O    1.0746123835    0.5205167870    0.5205167870         -1.1531
O85        O    1.0205167870    0.5205167870    0.5746123835         -1.1522
O86        O    0.9794832130    0.4794832130    0.5746123835         -1.1501
C87        C    1.0000000000    0.4107918149    0.5000000000          0.3678
C88        C    1.0000000000    0.5000000000    0.4107918149          0.3727
C89        C    0.9107918149    0.5000000000    0.5000000000          0.3623
C90        C    1.0000000000    0.5892081851    0.5000000000          0.3661
C91        C    1.0892081851    0.5000000000    0.5000000000          0.3774
C92        C    1.0000000000    0.5000000000    0.5892081851          0.3679
Zn93      Zn    0.4720832262    0.9720832262   -0.0279167738          1.4972
Zn94      Zn    0.4720832262    1.0279167738    0.0279167738          1.4936
Zn95      Zn    0.5279167738    0.9720832262    0.0279167738          1.4911
Zn96      Zn    0.5279167738    1.0279167738   -0.0279167738          1.4948
O97        O    0.5000000000    1.0000000000    0.0000000000         -2.2448
O98        O    0.4253876165    0.9794832130   -0.0205167870         -1.1511
O99        O    0.4794832130    1.0205167870    0.0746123835         -1.1493
O100       O    0.5205167870    0.9253876165    0.0205167870         -1.1445
O101       O    0.4253876165    1.0205167870    0.0205167870         -1.1512
O102       O    0.4794832130    0.9253876165   -0.0205167870         -1.1472
O103       O    0.5205167870    0.9794832130    0.0746123835         -1.1531
O104       O    0.5746123835    1.0205167870   -0.0205167870          -1.147
O105       O    0.4794832130    1.0746123835    0.0205167870         -1.1545
O106       O    0.5746123835    0.9794832130    0.0205167870         -1.1484
O107       O    0.5205167870    1.0746123835   -0.0205167870         -1.1531
O108       O    0.5205167870    1.0205167870   -0.0746123835         -1.1522
O109       O    0.4794832130    0.9794832130   -0.0746123835         -1.1501
C110       C    0.4107918149    1.0000000000    0.0000000000          0.3678
C111       C    0.5000000000    1.0000000000    0.0892081851          0.3727
C112       C    0.5000000000    0.9107918149    0.0000000000          0.3623
C113       C    0.5892081851    1.0000000000    0.0000000000          0.3661
C114       C    0.5000000000    1.0892081851    0.0000000000          0.3774
C115       C    0.5000000000    1.0000000000   -0.0892081851          0.3679
Zn116     Zn    0.4720832262    1.0279167738    0.5279167738          1.4972
Zn117     Zn    0.4720832262    0.9720832262    0.4720832262          1.4936
Zn118     Zn    0.5279167738    1.0279167738    0.4720832262          1.4911
Zn119     Zn    0.5279167738    0.9720832262    0.5279167738          1.4948
O120       O    0.5000000000    1.0000000000    0.5000000000         -2.2448
O121       O    0.4253876165    1.0205167870    0.5205167870         -1.1511
O122       O    0.4794832130    0.9794832130    0.4253876165         -1.1493
O123       O    0.5205167870    1.0746123835    0.4794832130         -1.1445
O124       O    0.4253876165    0.9794832130    0.4794832130         -1.1512
O125       O    0.4794832130    1.0746123835    0.5205167870         -1.1472
O126       O    0.5205167870    1.0205167870    0.4253876165         -1.1531
O127       O    0.5746123835    0.9794832130    0.5205167870          -1.147
O128       O    0.4794832130    0.9253876165    0.4794832130         -1.1545
O129       O    0.5746123835    1.0205167870    0.4794832130         -1.1484
O130       O    0.5205167870    0.9253876165    0.5205167870         -1.1531
O131       O    0.5205167870    0.9794832130    0.5746123835         -1.1522
O132       O    0.4794832130    1.0205167870    0.5746123835         -1.1501
C133       C    0.4107918149    1.0000000000    0.5000000000          0.3678
C134       C    0.5000000000    1.0000000000    0.4107918149          0.3727
C135       C    0.5000000000    1.0892081851    0.5000000000          0.3623
C136       C    0.5892081851    1.0000000000    0.5000000000          0.3661
C137       C    0.5000000000    0.9107918149    0.5000000000          0.3774
C138       C    0.5000000000    1.0000000000    0.5892081851          0.3679
Zn139     Zn    0.4720832262    0.5279167738   -0.0279167738          1.4972
Zn140     Zn    0.4720832262    0.4720832262    0.0279167738          1.4936
Zn141     Zn    0.5279167738    0.4720832262   -0.0279167738          1.4911
Zn142     Zn    0.5279167738    0.5279167738    0.0279167738          1.4948
O143       O    0.5000000000    0.5000000000    0.0000000000         -2.2448
O144       O    0.4253876165    0.5205167870   -0.0205167870         -1.1511
O145       O    0.4794832130    0.4253876165    0.0205167870         -1.1493
O146       O    0.5205167870    0.4794832130   -0.0746123835         -1.1445
O147       O    0.4253876165    0.4794832130    0.0205167870         -1.1512
O148       O    0.4794832130    0.5205167870   -0.0746123835         -1.1472
O149       O    0.5205167870    0.4253876165   -0.0205167870         -1.1531
O150       O    0.5746123835    0.5205167870    0.0205167870          -1.147
O151       O    0.4794832130    0.4794832130    0.0746123835         -1.1545
O152       O    0.5746123835    0.4794832130   -0.0205167870         -1.1484
O153       O    0.5205167870    0.5205167870    0.0746123835         -1.1531
O154       O    0.5205167870    0.5746123835    0.0205167870         -1.1522
O155       O    0.4794832130    0.5746123835   -0.0205167870         -1.1501
C156       C    0.4107918149    0.5000000000    0.0000000000          0.3678
C157       C    0.5000000000    0.4107918149    0.0000000000          0.3727
C158       C    0.5000000000    0.5000000000   -0.0892081851          0.3623
C159       C    0.5892081851    0.5000000000    0.0000000000          0.3661
C160       C    0.5000000000    0.5000000000    0.0892081851          0.3774
C161       C    0.5000000000    0.5892081851    0.0000000000          0.3679
Zn162     Zn    0.4720832262    0.4720832262    0.4720832262          1.4972
Zn163     Zn    0.5279167738    0.5279167738    0.4720832262          1.4936
Zn164     Zn    0.4720832262    0.5279167738    0.5279167738          1.4911
Zn165     Zn    0.5279167738    0.4720832262    0.5279167738          1.4948
O166       O    0.5000000000    0.5000000000    0.5000000000         -2.2448
O167       O    0.4794832130    0.4794832130    0.4253876165         -1.1511
O168       O    0.5205167870    0.5746123835    0.4794832130         -1.1493
O169       O    0.4253876165    0.5205167870    0.5205167870         -1.1445
O170       O    0.5205167870    0.5205167870    0.4253876165         -1.1512
O171       O    0.4253876165    0.4794832130    0.4794832130         -1.1472
O172       O    0.4794832130    0.5746123835    0.5205167870         -1.1531
O173       O    0.5205167870    0.4794832130    0.5746123835          -1.147
O174       O    0.5746123835    0.5205167870    0.4794832130         -1.1545
O175       O    0.4794832130    0.5205167870    0.5746123835         -1.1484
O176       O    0.5746123835    0.4794832130    0.5205167870         -1.1531
O177       O    0.5205167870    0.4253876165    0.5205167870         -1.1522
O178       O    0.4794832130    0.4253876165    0.4794832130         -1.1501
C179       C    0.5000000000    0.5000000000    0.4107918149          0.3678
C180       C    0.5000000000    0.5892081851    0.5000000000          0.3727
C181       C    0.4107918149    0.5000000000    0.5000000000          0.3623
C182       C    0.5000000000    0.5000000000    0.5892081851          0.3661
C183       C    0.5892081851    0.5000000000    0.5000000000          0.3774
C184       C    0.5000000000    0.4107918149    0.5000000000          0.3679
C829       C    0.5000000000    0.5000000000   -0.1275526657          0.5931
C830       C    0.4945136663    0.5262864878   -0.1484807896          0.5901
C831       C    0.4939867442    0.5253357770   -0.1827048016          0.5907
C832       C    0.4983172237    0.4972874373   -0.2033837764         -0.4061
C833       C    0.5044247803    0.4712514874   -0.1803750148         -0.4027
C834       C    0.5051635742    0.4721140364   -0.1458965024         -0.4031
C835       C    0.4863120266    0.4958772450   -0.2376129589          0.5856
C836       C    0.4897133830    0.5499680334   -0.1948145478          0.5884
H837       H    0.4902109211    0.5507544830   -0.1373302353          0.5871
N838       N    0.5117866187    0.4436108187   -0.1297811527         -0.3992
H839       H    0.5092763560    0.4471732649   -0.1917922518         -0.3992
H840       H    0.4935268885    0.4332326344   -0.1155988366          0.5859
H841       H    0.5329306069    0.4423241687   -0.1158407917         -0.3832
C842       C    0.5031243336    0.4991781206   -0.2678259797         -0.4004
C843       C    0.4888968186    0.5037790532   -0.3060458848          0.5898
H844       H    0.5299711891    0.5024781561   -0.2663579756         -0.3794
H845       H    0.4593868529    0.4940917603   -0.2398136541          0.5647
N846       N    0.4804118026    0.5743042110   -0.2063414270          0.5821
C847       C    0.4945077599    0.4792631023   -0.3378156690         -0.4055
C848       C    0.5000000000    0.5000000000   -0.3724473343         -0.3997
N849       N    0.4902134326    0.5331190145   -0.3589993384          0.5932
N850       N    0.5009577588    0.5342406511   -0.3234382601         -0.3995
H851       H    0.4920377656    0.5558682344   -0.3135922406         -0.4062
H852       H    0.4649319795    0.5345404049   -0.3578071730          0.5735
H853       H    0.5161216498    0.4633706047   -0.3334082000         -0.3892
H854       H    0.5268505757    0.5009659924   -0.3768195514         -0.3786
H855       H    0.4728201234    0.4630021958   -0.3401674037          0.5773
H856       H    0.4619381937    0.5067883733   -0.3036348759          0.5689
C801       C    0.5000000000    0.5000000000    0.1275526657          0.5931
C802       C    0.4735248810    0.5044885824    0.1484807896          0.5901
C803       C    0.4744549905    0.5050510719    0.1827048016          0.5907
C804       C    0.5026470016    0.5017841286    0.2033837764         -0.4061
C805       C    0.5288952487    0.4966652952    0.1803750148         -0.4027
C806       C    0.5280612484    0.4958944186    0.1458965024         -0.4031
C807       C    0.5036022982    0.5138340584    0.2376129589          0.5856
C808       C    0.4496787797    0.5083900916    0.1948145478          0.5884
H809       H    0.4489117031    0.5078631755    0.1373302353          0.5871
N810       N    0.5567944888    0.4903537472    0.1297811527         -0.3992
H811       H    0.5531396826    0.4927275277    0.1917922518         -0.3992
H812       H    0.5664748967    0.5089927966    0.1155988366          0.5859
H813       H    0.5588796221    0.4692735213    0.1158407917         -0.3832
C814       C    0.5009394153    0.4969089735    0.2678259797         -0.4004
C815       C    0.4958038642    0.5109523662    0.3060458848          0.5898
H816       H    0.4986567541    0.4699565461    0.2663579756         -0.3794
H817       H    0.5043685304    0.5408074865    0.2398136541          0.5647
N818       N    0.4250083312    0.5167649296    0.2063414270          0.5821
C819       C    0.5205144232    0.5062723254    0.3378156690         -0.4055
C820       C    0.5000000000    0.5000000000    0.3724473343         -0.3997
N821       N    0.4665346579    0.5085274203    0.3589993384          0.5932
N822       N    0.4658200402    0.4977483696    0.3234382601         -0.3995
H823       H    0.4438706765    0.5058442985    0.3135922406         -0.4062
H824       H    0.4641584529    0.5337370588    0.3578071730          0.5735
H825       H    0.5372127274    0.4852747457    0.3334082000         -0.3892
H826       H    0.5000498538    0.4731320996    0.3768195514         -0.3786
H827       H    0.5359437466    0.5285592418    0.3401674037          0.5773
H828       H    0.4917774551    0.5377779415    0.3036348759          0.5689
C773       C    0.5000000000    0.8724473343    0.5000000000          0.5931
C774       C    0.4910838892    0.8515192104    0.4746705258          0.5901
C775       C    0.4906873899    0.8172951984    0.4756825961          0.5907
C776       C    0.4986909224    0.7966162236    0.5029113654         -0.4061
C777       C    0.5081896454    0.8196249852    0.5279103093         -0.4027
C778       C    0.5088078185    0.8541034976    0.5269575925         -0.4031
C779       C    0.4869778583    0.7623870411    0.5058975886          0.5856
C780       C    0.4831924616    0.8051854522    0.4518323189          0.5884
H781       H    0.4835815689    0.8626697647    0.4509869535          0.5871
N782       N    0.5191439459    0.8702188473    0.5543339073         -0.3992
H783       H    0.5161843994    0.8082077482    0.5511349190         -0.3992
H784       H    0.5024179086    0.8844011634    0.5670368257          0.5859
H785       H    0.5402722782    0.8841592083    0.5528116464         -0.3832
C786       C    0.5032056092    0.7321740203    0.5004012674         -0.4004
C787       C    0.4884944228    0.6939541152    0.4977232534          0.5898
H788       H    0.5293797975    0.7336420244    0.4935780899         -0.3794
H789       H    0.4605256475    0.7601863459    0.5112298934          0.5647
N790       N    0.4707526962    0.7936585730    0.4289408101          0.5821
C791       C    0.4972997829    0.6621843310    0.5212812700         -0.4055
C792       C    0.5000000000    0.6275526657    0.5000000000         -0.3997
N793       N    0.4859174387    0.6410006616    0.4684670413          0.5932
N794       N    0.4964188965    0.6765617399    0.4659336649         -0.3995
H795       H    0.4847157424    0.6864077594    0.4456764484         -0.4062
H796       H    0.4606701897    0.6421928270    0.4704031817          0.5735
H797       H    0.5208264114    0.6665918000    0.5341742708         -0.3892
H798       H    0.5264866972    0.6231804486    0.4954898528         -0.3786
H799       H    0.4779543305    0.6598325963    0.5402687431          0.5773
H800       H    0.4613746457    0.6963651241    0.4983073347          0.5689
C745       C    0.5000000000    1.1275526657    0.5000000000          0.5931
C746       C    0.5037917970    1.1484807896    0.4734161408          0.5901
C747       C    0.5043785172    1.1827048016    0.4743311585          0.5907
C748       C    0.5018530237    1.2033837764    0.5025992375         -0.4061
C749       C    0.4974252355    1.1803750148    0.5289728536         -0.4027
C750       C    0.4966327239    1.1458965024    0.5281593841         -0.4031
C751       C    0.5139238842    1.2376129589    0.5032377730          0.5856
C752       C    0.5070657612    1.1948145478    0.4494758091          0.5884
H753       H    0.5065188833    1.1373302353    0.4487228338          0.5871
N754       N    0.4918484991    1.1297811527    0.5570282139         -0.3992
H755       H    0.4941254856    1.1917922518    0.5533123326         -0.3992
H756       H    0.5107353285    1.1155988366    0.5662158214          0.5859
H757       H    0.4708302985    1.1158407917    0.5596661956         -0.3832
C758       C    0.4969347085    1.2678259797    0.5010202618         -0.4004
C759       C    0.5108383985    1.3060458848    0.4955177017          0.5898
H760       H    0.4699316330    1.2663579756    0.4994461595         -0.3794
H761       H    0.5409081316    1.2398136541    0.5032954178          0.5647
N762       N    0.5147898642    1.2063414270    0.4245939448          0.5821
C763       C    0.5068088719    1.3378156690    0.5203426372         -0.4055
C764       C    0.5000000000    1.3724473343    0.5000000000         -0.3997
N765       N    0.5076456785    1.3589993384    0.4663222682          0.5932
N766       N    0.4968515791    1.3234382601    0.4658909552         -0.3995
H767       H    0.5043683250    1.3135922406    0.4437365614         -0.4062
H768       H    0.5327842241    1.3578071730    0.4632848766          0.5735
H769       H    0.4862570313    1.3334082000    0.5375865801         -0.3892
H770       H    0.4731426743    1.3768195514    0.5007553886         -0.3786
H771       H    0.5294932771    1.3401674037    0.5351813845          0.5773
H772       H    0.5375489893    1.3036348759    0.4907882405          0.5689
C717       C    0.5000000000    0.8724473343    0.0000000000          0.5931
C718       C    0.4734633867    0.8515192104    0.0041094346          0.5901
C719       C    0.4743853554    0.8172951984    0.0046851704          0.5907
C720       C    0.5026212114    0.7966162236    0.0018218077         -0.4061
C721       C    0.5289399909    0.8196249852   -0.0029210586         -0.4027
C722       C    0.5281171022    0.8541034976   -0.0037037854         -0.4031
C723       C    0.5034040533    0.7623870411    0.0138841689          0.5856
C724       C    0.4495639194    0.8051854522    0.0076694604          0.5884
H725       H    0.4488044580    0.8626697647    0.0071316262          0.5871
N726       N    0.5569266545    0.8702188473   -0.0088329022         -0.3992
H727       H    0.5532382687    0.8082077482   -0.0065116414         -0.3992
H728       H    0.5663394672    0.8844011634    0.0099427047          0.5859
H729       H    0.5593130969    0.8841592083   -0.0298811467         -0.3832
C730       C    0.5009835319    0.7321740203   -0.0030772733         -0.4004
C731       C    0.4956476355    0.6939541152    0.0108912260          0.5898
H732       H    0.4990866200    0.7336420244   -0.0300595936         -0.3794
H733       H    0.5037843909    0.7601863459    0.0408657974          0.5647
N734       N    0.4247762047    0.7936585730    0.0156905662          0.5821
C735       C    0.5204226079    0.6621843310    0.0065651132         -0.4055
C736       C    0.5000000000    0.6275526657    0.0000000000         -0.3997
N737       N    0.4664161089    0.6410006616    0.0080478742          0.5932
N738       N    0.4658557432    0.6765617399   -0.0027402954         -0.3995
H739       H    0.4437928242    0.6864077594    0.0050408511         -0.4062
H740       H    0.4636795593    0.6421928270    0.0332209455          0.5735
H741       H    0.5374195441    0.6665918000   -0.0141914732         -0.3892
H742       H    0.5004341555    0.6231804486   -0.0268644387         -0.3786
H743       H    0.5355315705    0.6598325963    0.0290704439          0.5773
H744       H    0.4912379369    0.6963651241    0.0376564651          0.5689
C689       C    0.5000000000    1.3724473343    0.0000000000          0.5931
C690       C    0.5064090318    1.3515192104   -0.0260768788          0.5901
C691       C    0.5055230774    1.3172951984   -0.0254471306          0.5907
C692       C    0.4973104391    1.2966162236    0.0017193005         -0.4061
C693       C    0.4915699021    1.3196249852    0.0278386262         -0.4027
C694       C    0.4926088440    1.3541034976    0.0273799246         -0.4031
C695       C    0.4858742530    1.2623870411   -0.0021956769          0.5856
C696       C    0.5123113327    1.3051854522   -0.0495080795          0.5884
H697       H    0.5130998190    1.3626697647   -0.0500023834          0.5871
N698       N    0.4862672351    1.3702188473    0.0559470761         -0.3992
H699       H    0.4855424780    1.3082077482    0.0516497316         -0.3992
H700       H    0.4653158203    1.3844011634    0.0574176799          0.5859
H701       H    0.5047801142    1.3841592083    0.0662425611         -0.3832
C702       C    0.5024626019    1.2321740203    0.0020910614         -0.4004
C703       C    0.4916192776    1.1939541152   -0.0082052040          0.5898
H704       H    0.5281002748    1.2336420244    0.0107139156         -0.3794
H705       H    0.4608203001    1.2601863459   -0.0122182701          0.5647
N706       N    0.5144369548    1.2936585730   -0.0754744167          0.5821
C707       C    0.4860875720    1.1621843310    0.0163287468         -0.4055
C708       C    0.5000000000    1.1275526657    0.0000000000         -0.3997
N709       N    0.5054828001    1.1410006616   -0.0340966996          0.5932
N710       N    0.5156571974    1.1765617399   -0.0304662380         -0.3995
H711       H    0.5169567255    1.1864077594   -0.0538249593         -0.4062
H712       H    0.4832967499    1.1421928270   -0.0463012642          0.5735
H713       H    0.4987138763    1.1665918000    0.0399995760         -0.3892
H714       H    0.5246326205    1.1231804486    0.0107294251         -0.3786
H715       H    0.4595030998    1.1598325963    0.0216236973          0.5773
H716       H    0.4686067193    1.1963651241   -0.0225664582          0.5689
C661       C    0.5000000000    1.0000000000   -0.1275526657          0.5931
C662       C    0.5054863337    0.9737135122   -0.1484807896          0.5901
C663       C    0.5060132558    0.9746642230   -0.1827048016          0.5907
C664       C    0.5016827763    1.0027125627   -0.2033837764         -0.4061
C665       C    0.4955752197    1.0287485126   -0.1803750148         -0.4027
C666       C    0.4948364258    1.0278859636   -0.1458965024         -0.4031
C667       C    0.5136879734    1.0041227550   -0.2376129589          0.5856
C668       C    0.5102866170    0.9500319666   -0.1948145478          0.5884
H669       H    0.5097890789    0.9492455170   -0.1373302353          0.5871
N670       N    0.4882133813    1.0563891813   -0.1297811527         -0.3992
H671       H    0.4907236440    1.0528267351   -0.1917922518         -0.3992
H672       H    0.5064731115    1.0667673656   -0.1155988366          0.5859
H673       H    0.4670693931    1.0576758313   -0.1158407917         -0.3832
C674       C    0.4968756664    1.0008218794   -0.2678259797         -0.4004
C675       C    0.5111031814    0.9962209468   -0.3060458848          0.5898
H676       H    0.4700288109    0.9975218439   -0.2663579756         -0.3794
H677       H    0.5406131471    1.0059082397   -0.2398136541          0.5647
N678       N    0.5195881974    0.9256957890   -0.2063414270          0.5821
C679       C    0.5054922401    1.0207368977   -0.3378156690         -0.4055
C680       C    0.5000000000    1.0000000000   -0.3724473343         -0.3997
N681       N    0.5097865674    0.9668809855   -0.3589993384          0.5932
N682       N    0.4990422412    0.9657593489   -0.3234382601         -0.3995
H683       H    0.5079622344    0.9441317656   -0.3135922406         -0.4062
H684       H    0.5350680205    0.9654595951   -0.3578071730          0.5735
H685       H    0.4838783502    1.0366293953   -0.3334082000         -0.3892
H686       H    0.4731494243    0.9990340076   -0.3768195514         -0.3786
H687       H    0.5271798766    1.0369978042   -0.3401674037          0.5773
H688       H    0.5380618063    0.9932116267   -0.3036348759          0.5689
C633       C    0.5000000000    1.0000000000    0.1275526657          0.5931
C634       C    0.4946215008    0.9736912364    0.1484807896          0.5901
C635       C    0.4940906847    0.9746397786    0.1827048016          0.5907
C636       C    0.4983061149    1.0027056396    0.2033837764         -0.4061
C637       C    0.5043068591    1.0287664148    0.1803750148         -0.4027
C638       C    0.5050491837    1.0279069025    0.1458965024         -0.4031
C639       C    0.4862952362    1.0040665925    0.2376129589          0.5856
C640       C    0.4899183646    0.9499902062    0.1948145478          0.5884
H641       H    0.4904191234    0.9492058034    0.1373302353          0.5871
N642       N    0.5115552944    1.0564370386    0.1297811527         -0.3992
H643       H    0.5090596607    1.0528643289    0.1917922518         -0.3992
H644       H    0.4932531617    1.0667402611    0.1155988366          0.5859
H645       H    0.5326938289    1.0578103792    0.1158407917         -0.3832
C646       C    0.5031209371    1.0008346839    0.2678259797         -0.4004
C647       C    0.4889124080    0.9961754497    0.3060458848          0.5898
H648       H    0.5299810988    0.9976447623    0.2663579756         -0.3794
H649       H    0.4593629675    1.0057416548    0.2398136541          0.5647
N650       N    0.4807166535    0.9256160918    0.2063414270          0.5821
C651       C    0.4944227739    1.0207142023    0.3378156690         -0.4055
C652       C    0.5000000000    1.0000000000    0.3724473343         -0.3997
N653       N    0.4903493202    0.9668411339    0.3589993384          0.5932
N654       N    0.5010981553    0.9657635641    0.3234382601         -0.3995
H655       H    0.4922669216    0.9440995860    0.3135922406         -0.4062
H656       H    0.4650739081    0.9653160882    0.3578071730          0.5735
H657       H    0.5159713145    1.0366951946    0.3334082000         -0.3892
H658       H    0.5268543110    0.9991441172    0.3768195514         -0.3786
H659       H    0.4726686415    1.0368860415    0.3401674037          0.5773
H660       H    0.4619663496    0.9930556104    0.3036348759          0.5689
C605       C    0.8724473343    0.5000000000    0.5000000000          0.5931
C606       C    0.8515192104    0.4775244612    0.5146945381          0.5901
C607       C    0.8172951984    0.4778247477    0.5136498726          0.5907
C608       C    0.7966162236    0.5007300210    0.4968924605         -0.4061
C609       C    0.8196249852    0.5234673064    0.4828145064         -0.4027
C610       C    0.8541034976    0.5233791234    0.4839467745         -0.4031
C611       C    0.7623870411    0.4932438760    0.4874018845          0.5856
C612       C    0.8051854522    0.4573768137    0.5280336020          0.5884
H613       H    0.8626697647    0.4571719814    0.5289413965          0.5871
N614       N    0.8702188473    0.5482263578    0.4684899608         -0.3992
H615       H    0.8082077482    0.5439318615    0.4692314077         -0.3992
H616       H    0.8844011634    0.5426653324    0.4482365795          0.5859
H617       H    0.8841592083    0.5640788433    0.4825406692         -0.3832
C618       C    0.7321740203    0.5027894232    0.5016297436         -0.4004
C619       C    0.6939541152    0.4894797593    0.4948147887          0.5898
H620       H    0.7336420244    0.5194268322    0.5229567337         -0.3794
H621       H    0.7601863459    0.4754795334    0.4670897930          0.5647
N622       N    0.7936585730    0.4335849955    0.5386504905          0.5821
C623       C    0.6621843310    0.5107906520    0.4814596263         -0.4055
C624       C    0.6275526657    0.5000000000    0.5000000000         -0.3997
N625       N    0.6410006616    0.4696513451    0.5164804479          0.5932
N626       N    0.6765617399    0.4764506125    0.5248750042         -0.3995
H627       H    0.6864077594    0.4548448628    0.5338477528         -0.4062
H628       H    0.6421928270    0.4507796414    0.4995975861          0.5735
H629       H    0.6665918000    0.5373092572    0.4855210662         -0.3892
H630       H    0.6231804486    0.5182914390    0.5196801883         -0.3786
H631       H    0.6598325963    0.5069693669    0.4546236721          0.5773
H632       H    0.6963651241    0.4682993183    0.4778674472          0.5689
C577       C    1.1275526657    0.5000000000    0.5000000000          0.5931
C578       C    1.1484807896    0.5146945381    0.4775244612          0.5901
C579       C    1.1827048016    0.5136498726    0.4778247477          0.5907
C580       C    1.2033837764    0.4968924605    0.5007300210         -0.4061
C581       C    1.1803750148    0.4828145064    0.5234673064         -0.4027
C582       C    1.1458965024    0.4839467745    0.5233791234         -0.4031
C583       C    1.2376129589    0.4874018845    0.4932438760          0.5856
C584       C    1.1948145478    0.5280336020    0.4573768137          0.5884
H585       H    1.1373302353    0.5289413965    0.4571719814          0.5871
N586       N    1.1297811527    0.4684899608    0.5482263578         -0.3992
H587       H    1.1917922518    0.4692314077    0.5439318615         -0.3992
H588       H    1.1155988366    0.4482365795    0.5426653324          0.5859
H589       H    1.1158407917    0.4825406692    0.5640788433         -0.3832
C590       C    1.2678259797    0.5016297436    0.5027894232         -0.4004
C591       C    1.3060458848    0.4948147887    0.4894797593          0.5898
H592       H    1.2663579756    0.5229567337    0.5194268322         -0.3794
H593       H    1.2398136541    0.4670897930    0.4754795334          0.5647
N594       N    1.2063414270    0.5386504905    0.4335849955          0.5821
C595       C    1.3378156690    0.4814596263    0.5107906520         -0.4055
C596       C    1.3724473343    0.5000000000    0.5000000000         -0.3997
N597       N    1.3589993384    0.5164804479    0.4696513451          0.5932
N598       N    1.3234382601    0.5248750042    0.4764506125         -0.3995
H599       H    1.3135922406    0.5338477528    0.4548448628         -0.4062
H600       H    1.3578071730    0.4995975861    0.4507796414          0.5735
H601       H    1.3334082000    0.4855210662    0.5373092572         -0.3892
H602       H    1.3768195514    0.5196801883    0.5182914390         -0.3786
H603       H    1.3401674037    0.4546236721    0.5069693669          0.5773
H604       H    1.3036348759    0.4778674472    0.4682993183          0.5689
C549       C    0.8724473343    0.5000000000    0.0000000000          0.5931
C550       C    0.8515192104    0.4737802563   -0.0057969249          0.5901
C551       C    0.8172951984    0.4747371342   -0.0063125630          0.5907
C552       C    0.7966162236    0.5027322805   -0.0016505683         -0.4061
C553       C    0.8196249852    0.5286941546    0.0047645721         -0.4027
C554       C    0.8541034976    0.5278229258    0.0054931101         -0.4031
C555       C    0.7623870411    0.5042843984   -0.0136382424          0.5856
C556       C    0.8051854522    0.4501571564   -0.0108770304          0.5884
H557       H    0.8626697647    0.4493648758   -0.0103888310          0.5871
N558       N    0.8702188473    0.5562457968    0.0124528908         -0.3992
H559       H    0.8082077482    0.5527132969    0.0099006592         -0.3992
H560       H    0.8844011634    0.5668392716   -0.0056827853          0.5859
H561       H    0.8841592083    0.5572822186    0.0336106207         -0.3832
C562       C    0.7321740203    0.5007848603    0.0031338379         -0.4004
C563       C    0.6939541152    0.4963525644   -0.0111471115          0.5898
H564       H    0.7336420244    0.4971674513    0.0299397745         -0.3794
H565       H    0.7601863459    0.5063882890   -0.0405404091          0.5647
N566       N    0.7936585730    0.4259327217   -0.0204658624          0.5821
C567       C    0.6621843310    0.5208004210   -0.0052465335         -0.4055
C568       C    0.6275526657    0.5000000000    0.0000000000         -0.3997
N569       N    0.6410006616    0.4669990805   -0.0101776880          0.5932
N570       N    0.6765617399    0.4657504146    0.0005526170         -0.3995
H571       H    0.6864077594    0.4442298703   -0.0086226112         -0.4062
H572       H    0.6421928270    0.4658768749   -0.0354741873          0.5735
H573       H    0.6665918000    0.5364361092    0.0165538557         -0.3892
H574       H    0.6231804486    0.4987164268    0.0268372688         -0.3786
H575       H    0.6598325963    0.5373167593   -0.0267402821          0.5773
H576       H    0.6963651241    0.4936623816   -0.0381394508          0.5689
C521       C    1.1275526657    0.5000000000    0.0000000000          0.5931
C522       C    1.1484807896    0.5114097178   -0.0243083861          0.5901
C523       C    1.1827048016    0.5104172627   -0.0238650681          0.5907
C524       C    1.2033837764    0.4970249598    0.0011570947         -0.4061
C525       C    1.1803750148    0.4862623521    0.0256385001         -0.4027
C526       C    1.1458965024    0.4873711888    0.0253929634         -0.4031
C527       C    1.2376129589    0.4865814120   -0.0049294240          0.5856
C528       C    1.1948145478    0.5218025511   -0.0461223115          0.5884
H529       H    1.1373302353    0.5226728165   -0.0464519860          0.5871
N530       N    1.1297811527    0.4755380864    0.0521562933         -0.3992
H531       H    1.1917922518    0.4756721617    0.0478003243         -0.3992
H532       H    1.1155988366    0.4547063389    0.0494799610          0.5859
H533       H    1.1158407917    0.4916661074    0.0658898522         -0.3832
C534       C    1.2678259797    0.5020035375    0.0025343211         -0.4004
C535       C    1.3060458848    0.4933956026   -0.0096924618          0.5898
H536       H    1.2663579756    0.5254461331    0.0160283418         -0.3794
H537       H    1.2398136541    0.4639862839   -0.0196811397          0.5647
N538       N    1.2063414270    0.5289906941   -0.0711642670          0.5821
C539       C    1.3378156690    0.4831493763    0.0132755454         -0.4055
C540       C    1.3724473343    0.5000000000    0.0000000000         -0.3997
N541       N    1.3589993384    0.5120779455   -0.0323538136          0.5932
N542       N    1.3234382601    0.5213402452   -0.0267942797         -0.3995
H543       H    1.3135922406    0.5272058524   -0.0494418687         -0.4062
H544       H    1.3578071730    0.4927236635   -0.0486812136          0.5735
H545       H    1.3334082000    0.4908765802    0.0389664394         -0.3892
H546       H    1.3768195514    0.5220430791    0.0153619405         -0.3786
H547       H    1.3401674037    0.4560427440    0.0132417088          0.5773
H548       H    1.3036348759    0.4736548592   -0.0282969375          0.5689
C493       C    1.0000000000    0.5000000000   -0.1275526657          0.5931
C494       C    1.0264751190    0.5044885824   -0.1484807896          0.5901
C495       C    1.0255450095    0.5050510719   -0.1827048016          0.5907
C496       C    0.9973529984    0.5017841286   -0.2033837764         -0.4061
C497       C    0.9711047513    0.4966652952   -0.1803750148         -0.4027
C498       C    0.9719387516    0.4958944186   -0.1458965024         -0.4031
C499       C    0.9963977018    0.5138340584   -0.2376129589          0.5856
C500       C    1.0503212203    0.5083900916   -0.1948145478          0.5884
H501       H    1.0510882969    0.5078631755   -0.1373302353          0.5871
N502       N    0.9432055112    0.4903537472   -0.1297811527         -0.3992
H503       H    0.9468603174    0.4927275277   -0.1917922518         -0.3992
H504       H    0.9335251033    0.5089927966   -0.1155988366          0.5859
H505       H    0.9411203779    0.4692735213   -0.1158407917         -0.3832
C506       C    0.9990605847    0.4969089735   -0.2678259797         -0.4004
C507       C    1.0041961358    0.5109523662   -0.3060458848          0.5898
H508       H    1.0013432459    0.4699565461   -0.2663579756         -0.3794
H509       H    0.9956314696    0.5408074865   -0.2398136541          0.5647
N510       N    1.0749916688    0.5167649296   -0.2063414270          0.5821
C511       C    0.9794855768    0.5062723254   -0.3378156690         -0.4055
C512       C    1.0000000000    0.5000000000   -0.3724473343         -0.3997
N513       N    1.0334653421    0.5085274203   -0.3589993384          0.5932
N514       N    1.0341799598    0.4977483696   -0.3234382601         -0.3995
H515       H    1.0561293235    0.5058442985   -0.3135922406         -0.4062
H516       H    1.0358415471    0.5337370588   -0.3578071730          0.5735
H517       H    0.9627872726    0.4852747457   -0.3334082000         -0.3892
H518       H    0.9999501462    0.4731320996   -0.3768195514         -0.3786
H519       H    0.9640562534    0.5285592418   -0.3401674037          0.5773
H520       H    1.0082225449    0.5377779415   -0.3036348759          0.5689
C465       C    1.0000000000    0.5000000000    0.3724473343          0.5931
C466       C    1.0264751190    0.5044885824    0.3515192104          0.5901
C467       C    1.0255450095    0.5050510719    0.3172951984          0.5907
C468       C    0.9973529984    0.5017841286    0.2966162236         -0.4061
C469       C    0.9711047513    0.4966652952    0.3196249852         -0.4027
C470       C    0.9719387516    0.4958944186    0.3541034976         -0.4031
C471       C    0.9963977018    0.5138340584    0.2623870411          0.5856
C472       C    1.0503212203    0.5083900916    0.3051854522          0.5884
H473       H    1.0510882969    0.5078631755    0.3626697647          0.5871
N474       N    0.9432055112    0.4903537472    0.3702188473         -0.3992
H475       H    0.9468603174    0.4927275277    0.3082077482         -0.3992
H476       H    0.9335251033    0.5089927966    0.3844011634          0.5859
H477       H    0.9411203779    0.4692735213    0.3841592083         -0.3832
C478       C    0.9990605847    0.4969089735    0.2321740203         -0.4004
C479       C    1.0041961358    0.5109523662    0.1939541152          0.5898
H480       H    1.0013432459    0.4699565461    0.2336420244         -0.3794
H481       H    0.9956314696    0.5408074865    0.2601863459          0.5647
N482       N    1.0749916688    0.5167649296    0.2936585730          0.5821
C483       C    0.9794855768    0.5062723254    0.1621843310         -0.4055
C484       C    1.0000000000    0.5000000000    0.1275526657         -0.3997
N485       N    1.0334653421    0.5085274203    0.1410006616          0.5932
N486       N    1.0341799598    0.4977483696    0.1765617399         -0.3995
H487       H    1.0561293235    0.5058442985    0.1864077594         -0.4062
H488       H    1.0358415471    0.5337370588    0.1421928270          0.5735
H489       H    0.9627872726    0.4852747457    0.1665918000         -0.3892
H490       H    0.9999501462    0.4731320996    0.1231804486         -0.3786
H491       H    0.9640562534    0.5285592418    0.1598325963          0.5773
H492       H    1.0082225449    0.5377779415    0.1963651241          0.5689
C437       C    1.0000000000   -0.3724473343    0.5000000000          0.5931
C438       C    0.9735248810   -0.3515192104    0.4955114176          0.5901
C439       C    0.9744549905   -0.3172951984    0.4949489281          0.5907
C440       C    1.0026470016   -0.2966162236    0.4982158714         -0.4061
C441       C    1.0288952487   -0.3196249852    0.5033347048         -0.4027
C442       C    1.0280612484   -0.3541034976    0.5041055814         -0.4031
C443       C    1.0036022982   -0.2623870411    0.4861659416          0.5856
C444       C    0.9496787797   -0.3051854522    0.4916099084          0.5884
H445       H    0.9489117031   -0.3626697647    0.4921368245          0.5871
N446       N    1.0567944888   -0.3702188473    0.5096462528         -0.3992
H447       H    1.0531396826   -0.3082077482    0.5072724723         -0.3992
H448       H    1.0664748967   -0.3844011634    0.4910072034          0.5859
H449       H    1.0588796221   -0.3841592083    0.5307264787         -0.3832
C450       C    1.0009394153   -0.2321740203    0.5030910265         -0.4004
C451       C    0.9958038642   -0.1939541152    0.4890476338          0.5898
H452       H    0.9986567541   -0.2336420244    0.5300434539         -0.3794
H453       H    1.0043685304   -0.2601863459    0.4591925135          0.5647
N454       N    0.9250083312   -0.2936585730    0.4832350704          0.5821
C455       C    1.0205144232   -0.1621843310    0.4937276746         -0.4055
C456       C    1.0000000000   -0.1275526657    0.5000000000         -0.3997
N457       N    0.9665346579   -0.1410006616    0.4914725797          0.5932
N458       N    0.9658200402   -0.1765617399    0.5022516304         -0.3995
H459       H    0.9438706765   -0.1864077594    0.4941557015         -0.4062
H460       H    0.9641584529   -0.1421928270    0.4662629412          0.5735
H461       H    1.0372127274   -0.1665918000    0.5147252543         -0.3892
H462       H    1.0000498538   -0.1231804486    0.5268679004         -0.3786
H463       H    1.0359437466   -0.1598325963    0.4714407582          0.5773
H464       H    0.9917774551   -0.1963651241    0.4622220585          0.5689
C409       C    1.0000000000    0.3724473343    0.5000000000          0.5931
C410       C    1.0014287434    0.3515192104    0.5268148837          0.5901
C411       C    1.0020939963    0.3172951984    0.5259552696          0.5907
C412       C    1.0020753787    0.2966162236    0.4975746061         -0.4061
C413       C    0.9999945586    0.3196249852    0.4709129646         -0.4027
C414       C    0.9991332888    0.3541034976    0.4716532493         -0.4031
C415       C    1.0141554579    0.2623870411    0.4980048216          0.5856
C416       C    1.0025751889    0.3051854522    0.5509508317          0.5884
H417       H    1.0019639362    0.3626697647    0.5516525562          0.5871
N418       N    0.9969178353    0.3702188473    0.4424746629         -0.3992
H419       H    0.9988576862    0.3082077482    0.4463771519         -0.3992
H420       H    1.0165424049    0.3844011634    0.4349912996          0.5859
H421       H    0.9762148155    0.3841592083    0.4379903928         -0.3832
C422       C    0.9970368135    0.2321740203    0.4987129601         -0.4004
C423       C    1.0104000965    0.1939541152    0.5054221650          0.5898
H424       H    0.9700002478    0.2336420244    0.4978956472         -0.3794
H425       H    1.0410393159    0.2601863459    0.5003310011          0.5647
N426       N    1.0080712092    0.2936585730    0.5764177259          0.5821
C427       C    1.0085791818    0.1621843310    0.4803383300         -0.4055
C428       C    1.0000000000    0.1275526657    0.5000000000         -0.3997
N429       N    1.0046409372    0.1410006616    0.5342214512          0.5932
N430       N    0.9938509327    0.1765617399    0.5336976032 -0.39630000000000004
H431       H    0.9993813321    0.1864077594    0.5564293721         -0.4062
H432       H    1.0294129144    0.1421928270    0.5394675322          0.5735
H433       H    0.9896308871    0.1665918000    0.4613463884         -0.3892
H434       H    0.9733143853    0.1231804486    0.4968751766         -0.3786
H435       H    1.0324856644    0.1598325963    0.4675613684          0.5773
H436       H    1.0365885083    0.1963651241    0.5124925648          0.5689
C381       C    0.8724473343    0.0000000000    0.5000000000          0.5931
C382       C    0.8515192104   -0.0235482787    0.4870942700          0.5901
C383       C    0.8172951984   -0.0224853054    0.4868671450          0.5907
C384       C    0.7966162236    0.0030851189    0.4991803821         -0.4061
C385       C    0.8196249852    0.0262127613    0.5126074106         -0.4027
C386       C    0.8541034976    0.0251724074    0.5130629005         -0.4031
C387       C    0.7623870411    0.0079313030    0.4881066338          0.5856
C388       C    0.8051854522   -0.0448044380    0.4756036645          0.5884
H389       H    0.8626697647   -0.0457017143    0.4758505297          0.5871
N390       N    0.8702188473    0.0505101510    0.5277017833         -0.3992
H391       H    0.8082077482    0.0478334523    0.5242626372         -0.3992
H392       H    0.8844011634    0.0657573571    0.5132571593          0.5859
H393       H    0.8841592083    0.0455816918    0.5483035792         -0.3832
C394       C    0.7321740203   -0.0001238927    0.5032282498         -0.4004
C395       C    0.6939541152   -0.0003807682    0.4882775047          0.5898
H396       H    0.7336420244   -0.0111013793    0.5279494688         -0.3794
H397       H    0.7601863459    0.0174827378    0.4628692999          0.5647
N398       N    0.7936585730   -0.0653755969    0.4596162832          0.5821
C399       C    0.6621843310    0.0214374618    0.5007866754         -0.4055
C400       C    0.6275526657    0.0000000000    0.5000000000         -0.3997
N401       N    0.6410006616   -0.0288318131    0.4809901980          0.5932
N402       N    0.6765617399   -0.0330346603    0.4909418154         -0.3995
H403       H    0.6864077594   -0.0511258519    0.4761084940         -0.4062
H404       H    0.6421928270   -0.0228269946    0.4563911253          0.5735
H405       H    0.6665918000    0.0303445228    0.5260927217         -0.3892
H406       H    0.6231804486   -0.0087457527    0.5254046918         -0.3786
H407       H    0.6598325963    0.0433108209    0.4847764655          0.5773
H408       H    0.6963651241    0.0045935532    0.4616114290          0.5689
C353       C    1.1275526657   -0.0000000000    0.5000000000          0.5931
C354       C    1.1484807896   -0.0016974484    0.4732007842          0.5901
C355       C    1.1827048016   -0.0023540517    0.4740670233          0.5907
C356       C    1.2033837764   -0.0020509637    0.5024460745         -0.4061
C357       C    1.1803750148    0.0002969926    0.5290855196         -0.4027
C358       C    1.1458965024    0.0011507990    0.5283366392         -0.4031
C359       C    1.2376129589   -0.0141347483    0.5021369643          0.5856
C360       C    1.1948145478   -0.0030857611    0.4490775400          0.5884
H361       H    1.1373302353   -0.0024815728    0.4483697240          0.5871
N362       N    1.1297811527    0.0036586105    0.5574915535         -0.3992
H363       H    1.1917922518    0.0016797408    0.5536087045         -0.3992
H364       H    1.1155988366   -0.0158899644    0.5651712461          0.5859
H365       H    1.1158407917    0.0244055379    0.5617680833         -0.3832
C366       C    1.2678259797    0.0029759382    0.5012572740         -0.4004
C367       C    1.3060458848   -0.0104539227    0.4946823519          0.5898
H368       H    1.2663579756    0.0300193379    0.5018035470         -0.3794
H369       H    1.2398136541   -0.0410405720    0.5000803698          0.5647
N370       N    1.2063414270   -0.0088367707    0.4236670141          0.5821
C371       C    1.3378156690   -0.0083816736    0.5197466750         -0.4055
C372       C    1.3724473343   -0.0000000000    0.5000000000         -0.3997
N373       N    1.3589993384   -0.0049837200    0.4658267860          0.5932
N374       N    1.3234382601    0.0058109931    0.4662424550         -0.3995
H375       H    1.3135922406    0.0000530215    0.4435672615         -0.4062
H376       H    1.3578071730   -0.0298070365    0.4608292685          0.5735
H377       H    1.3334082000    0.0107560333    0.5385477358         -0.3892
H378       H    1.3768195514    0.0267155956    0.5028571853         -0.3786
H379       H    1.3401674037   -0.0321588864    0.5327626195          0.5773
H380       H    1.3036348759   -0.0367118884    0.4878748048          0.5689
C325       C   -0.0000000000   -0.1275526657   -0.0000000000          0.5931
C326       C   -0.0220285727   -0.1484807896   -0.0153564736          0.5901
C327       C   -0.0217594880   -0.1827048016   -0.0143033395          0.5907
C328       C    0.0006372781   -0.2033837764    0.0031278761         -0.4061
C329       C    0.0229458191   -0.1803750148    0.0178758229         -0.4027
C330       C    0.0228913495   -0.1458965024    0.0167414330         -0.4031
C331       C   -0.0071278107   -0.2376129589    0.0123916117          0.5856
C332       C   -0.0417705964   -0.1948145478   -0.0292888396          0.5884
H333       H   -0.0419483398   -0.1373302353   -0.0302023244          0.5871
N334       N    0.0472678981   -0.1297811527    0.0329303806         -0.3992
H335       H    0.0429973525   -0.1917922518    0.0320615408         -0.3992
H336       H    0.0411069853   -0.1155988366    0.0530094147          0.5859
H337       H    0.0635312475   -0.1158407917    0.0193573496         -0.3832
C338       C    0.0028366588   -0.2678259797   -0.0015460636         -0.4004
C339       C   -0.0106697983   -0.3060458848    0.0048700395          0.5898
H340       H    0.0201009853   -0.2663579756   -0.0223688135         -0.3794
H341       H   -0.0254883886   -0.2398136541    0.0321663964          0.5647
N342       N   -0.0652361379   -0.2063414270   -0.0406086142          0.5821
C343       C    0.0102344773   -0.3378156690    0.0188530926         -0.4055
C344       C   -0.0000000000   -0.3724473343    0.0000000000         -0.3997
N345       N   -0.0298450922   -0.3589993384   -0.0173757444          0.5932
N346       N   -0.0227991734   -0.3234382601   -0.0255643732         -0.3995
H347       H   -0.0441285111   -0.3135922406   -0.0351757203         -0.4062
H348       H   -0.0492105540   -0.3578071730   -0.0010616061          0.5735
H349       H    0.0368621416   -0.3334082000    0.0155821279         -0.3892
H350       H    0.0188686481   -0.3768195514   -0.0191274848         -0.3786
H351       H    0.0056167657   -0.3401674037    0.0455635288          0.5773
H352       H   -0.0323448939   -0.3036348759    0.0211799658          0.5689
C297       C    0.0000000000    0.1275526657    0.0000000000          0.5931
C298       C   -0.0041200638    0.1484807896    0.0265349650          0.5901
C299       C   -0.0046954303    0.1827048016    0.0256127658          0.5907
C300       C   -0.0018207576    0.2033837764   -0.0026219409         -0.4061
C301       C    0.0029326506    0.1803750148   -0.0289388185         -0.4027
C302       C    0.0037150478    0.1458965024   -0.0281156163         -0.4031
C303       C   -0.0138828043    0.2376129589   -0.0034096145          0.5856
C304       C   -0.0076896625    0.1948145478    0.0504330045          0.5884
H305       H   -0.0071521326    0.1373302353    0.0511926812          0.5871
N306       N    0.0088557041    0.1297811527   -0.0569231118         -0.3992
H307       H    0.0065329661    0.1917922518   -0.0532356561         -0.3992
H308       H   -0.0099161308    0.1155988366   -0.0663434445          0.5859
H309       H    0.0299049029    0.1158407917   -0.0593011229         -0.3832
C310       C    0.0030776670    0.2678259797   -0.0009822992         -0.4004
C311       C   -0.0108929685    0.3060458848    0.0043480015          0.5898
H312       H    0.0300592253    0.2663579756    0.0009254206         -0.3794
H313       H   -0.0408642782    0.2398136541   -0.0038007598          0.5647
N314       N   -0.0157206967    0.2063414270    0.0752175042          0.5821
C315       C   -0.0065569321    0.3378156690   -0.0204252360         -0.4055
C316       C    0.0000000000    0.3724473343    0.0000000000         -0.3997
N317       N   -0.0080613259    0.3589993384    0.0335806647          0.5932
N318       N    0.0027266183    0.3234382601    0.0341453517         -0.3995
H319       H   -0.0050633651    0.3135922406    0.0562051521         -0.4062
H320       H   -0.0332354914    0.3578071730    0.0363071308          0.5735
H321       H    0.0142064608    0.3334082000   -0.0374138566         -0.3892
H322       H    0.0268646104    0.3768195514   -0.0004233946         -0.3786
H323       H   -0.0290562090    0.3401674037   -0.0355432122          0.5773
H324       H   -0.0376599718    0.3036348759    0.0087469786          0.5689
C269       C   -0.3724473343   -0.0000000000    0.0000000000          0.5931
C270       C   -0.3515192104    0.0239204373    0.0122021299          0.5901
C271       C   -0.3172951984    0.0235099624    0.0111956467          0.5907
C272       C   -0.2966162236   -0.0010587351   -0.0030114469         -0.4061
C273       C   -0.3196249852   -0.0251733570   -0.0145724999         -0.4027
C274       C   -0.3541034976   -0.0249643800   -0.0134561954         -0.4031
C275       C   -0.2623870411    0.0053675860   -0.0132494055          0.5856
C276       C   -0.3051854522    0.0453811667    0.0233059769          0.5884
H277       H   -0.3626697647    0.0456820736    0.0241866030          0.5871
N278       N   -0.3702188473   -0.0513245271   -0.0261621304         -0.3992
H279       H   -0.3082077482   -0.0469753139   -0.0258850266         -0.3992
H280       H   -0.3844011634   -0.0479652822   -0.0468947118          0.5859
H281       H   -0.3841592083   -0.0655805053   -0.0104939846         -0.3832
C282       C   -0.2321740203   -0.0025987727    0.0019191994         -0.4004
C283       C   -0.1939541152    0.0099041956   -0.0062824192          0.5898
H284       H   -0.2336420244   -0.0168556378    0.0249058408         -0.3794
H285       H   -0.2601863459    0.0208536266   -0.0353477194          0.5647
N286       N   -0.2936585730    0.0701734632    0.0313129097          0.5821
C287       C   -0.1621843310   -0.0127148090   -0.0172776520         -0.4055
C288       C   -0.1275526657   -0.0000000000    0.0000000000         -0.3997
N289       N   -0.1410006616    0.0319395698    0.0131343025          0.5932
N290       N   -0.1765617399    0.0260787549    0.0222089629         -0.3995
H291       H   -0.1864077594    0.0485214247    0.0288154148         -0.4062
H292       H   -0.1421928270    0.0488939771   -0.0056731508          0.5735
H293       H   -0.1665918000   -0.0386456875   -0.0103986072         -0.3892
H294       H   -0.1231804486   -0.0160778003    0.0215265160         -0.3786
H295       H   -0.1598325963   -0.0117904930   -0.0443685416          0.5773
H296       H   -0.1963651241    0.0291471452   -0.0254013196          0.5689
C241       C    0.1275526657   -0.0000000000    0.0000000000          0.5931
C242       C    0.1484807896    0.0150733508   -0.0222232624          0.5901
C243       C    0.1827048016    0.0140237460   -0.0219407244          0.5907
C244       C    0.2033837764   -0.0031194658    0.0006772485         -0.4061
C245       C    0.1803750148   -0.0175807573    0.0231726699         -0.4027
C246       C    0.1458965024   -0.0164471573    0.0231036897         -0.4031
C247       C    0.2376129589   -0.0124818008   -0.0069686709          0.5856
C248       C    0.1948145478    0.0287519681   -0.0421419409          0.5884
H249       H    0.1373302353    0.0296631038   -0.0423313582          0.5871
N250       N    0.1297811527   -0.0323228705    0.0476853876         -0.3992
H251       H    0.1917922518   -0.0315087454    0.0434040745         -0.3992
H252       H    0.1155988366   -0.0524790925    0.0417818996          0.5859
H253       H    0.1158407917   -0.0185428537    0.0637737326         -0.3832
C254       C    0.2678259797    0.0015822334    0.0028166440         -0.4004
C255       C    0.3060458848   -0.0050061658   -0.0106066104          0.5898
H256       H    0.2663579756    0.0226241836    0.0198131206         -0.3794
H257       H    0.2398136541   -0.0324898986   -0.0250747183          0.5647
N258       N    0.2063414270    0.0397705638   -0.0657504031          0.5821
C259       C    0.3378156690   -0.0187205944    0.0104748733         -0.4055
C260       C    0.3724473343   -0.0000000000    0.0000000000         -0.3997
N261       N    0.3589993384    0.0169924404   -0.0300649794          0.5932
N262       N    0.3234382601    0.0252705546   -0.0231244147         -0.3995
H263       H    0.3135922406    0.0346081963   -0.0445749878         -0.4062
H264       H    0.3578071730    0.0004318478   -0.0492201091          0.5735
H265       H    0.3334082000   -0.0151091845    0.0370585042         -0.3892
H266       H    0.3768195514    0.0193673519    0.0186223585         -0.3786
H267       H    0.3401674037   -0.0454879296    0.0061993119          0.5773
H268       H    0.3036348759   -0.0215920996   -0.0320712387          0.5689
C213       C   -0.0000000000    0.0000000000   -0.3724473343          0.5931
C214       C    0.0247377537   -0.0104461877   -0.3515192104          0.5901
C215       C    0.0237033603   -0.0107801461   -0.3172951984          0.5907
C216       C   -0.0029858697   -0.0011288554   -0.2966162236         -0.4061
C217       C   -0.0273581334    0.0098786737   -0.3196249852         -0.4027
C218       C   -0.0263694465    0.0104375166   -0.3541034976         -0.4031
C219       C   -0.0066817652   -0.0126377110   -0.2623870411          0.5856
C220       C    0.0470514603   -0.0197174779   -0.3051854522          0.5884
H221       H    0.0479190085   -0.0193807180   -0.3626697647          0.5871
N222       N   -0.0530635094    0.0224260590   -0.3702188473         -0.3992
H223       H   -0.0500512121    0.0192766928   -0.3082077482         -0.3992
H224       H   -0.0667640788    0.0065069241   -0.3844011634          0.5859
H225       H   -0.0502539116    0.0434220077   -0.3841592083         -0.3832
C226       C   -0.0002047717    0.0032241300   -0.2321740203         -0.4004
C227       C    0.0015699228   -0.0116231331   -0.1939541152          0.5898
H228       H    0.0082039699    0.0289328241   -0.2336420244         -0.3794
H229       H   -0.0136193933   -0.0387149472   -0.2601863459          0.5647
N230       N    0.0691406302   -0.0335318730   -0.2936585730          0.5821
C231       C   -0.0214064419   -0.0013956616   -0.1621843310         -0.4055
C232       C   -0.0000000000    0.0000000000   -0.1275526657         -0.3997
N233       N    0.0306141782   -0.0159818056   -0.1410006616          0.5932
N234       N    0.0337840866   -0.0056546427   -0.1765617399         -0.3995
H235       H    0.0532888605   -0.0185729410   -0.1864077594         -0.4062
H236       H    0.0271399563   -0.0410637115   -0.1421928270          0.5735
H237       H   -0.0328387557    0.0228743594   -0.1665918000         -0.3892
H238       H    0.0061191107    0.0261618623   -0.1231804486         -0.3786
H239       H   -0.0415397897   -0.0195455642   -0.1598325963          0.5773
H240       H   -0.0006691069   -0.0386566347   -0.1963651241          0.5689
C185       C    0.0000000000    0.0000000000    0.1275526657          0.5931
C186       C    0.0256019078   -0.0081007167    0.1484807896          0.5901
C187       C    0.0246030486   -0.0085294102    0.1827048016          0.5907
C188       C   -0.0028679683   -0.0014016027    0.2033837764         -0.4061
C189       C   -0.0281581653    0.0072920081    0.1803750148         -0.4027
C190       C   -0.0272257252    0.0079403619    0.1458965024         -0.4031
C191       C   -0.0054777129   -0.0132042564    0.2376129589          0.5856
C192       C    0.0486810239   -0.0152570235    0.1948145478          0.5884
H193       H    0.0495135003   -0.0148410546    0.1373302353          0.5871
N194       N   -0.0549188810    0.0173948459    0.1297811527         -0.3992
H195       H   -0.0516267937    0.0145392193    0.1917922518         -0.3992
H196       H   -0.0670798702    0.0002707459    0.1155988366          0.5859
H197       H   -0.0540737417    0.0385610794    0.1158407917         -0.3832
C198       C   -0.0005036769    0.0031911214    0.2678259797         -0.4004
C199       C    0.0026438861   -0.0114267995    0.3060458848          0.5898
H200       H    0.0054781389    0.0295703132    0.2663579756         -0.3794
H201       H   -0.0099605201   -0.0398136038    0.2398136541          0.5647
N202       N    0.0719590118   -0.0269576310    0.2063414270          0.5821
C203       C   -0.0211839267   -0.0033800705    0.3378156690         -0.4055
C204       C   -0.0000000000    0.0000000000    0.3724473343         -0.3997
N205       N    0.0319675970   -0.0130659390    0.3589993384          0.5932
N206       N    0.0341635116   -0.0024887668    0.3234382601         -0.3995
H207       H    0.0547849776   -0.0135374671    0.3135922406         -0.4062
H208       H    0.0308406414   -0.0383622271    0.3578071730          0.5735
H209       H   -0.0348234336    0.0197217816    0.3334082000         -0.3892
H210       H    0.0036599671    0.0266174979    0.3768195514         -0.3786
H211       H   -0.0395423994   -0.0233234188    0.3401674037          0.5773
H212       H    0.0029282385   -0.0385513752    0.3036348759          0.5689
loop_
_geom_bond_atom_site_label_1
_geom_bond_atom_site_label_2
_geom_bond_distance
_geom_bond_site_symmetry_2
_ccdc_geom_bond_type
Zn1          O5 1.942       .   S
Zn1          O6 1.922       .   S
Zn1         O10 1.922       .   S
Zn1         O17 1.922       .   S
Zn2          O5 1.942       .   S
Zn2          O7 1.922       .   S
Zn2          O9 1.922       .   S
Zn2         O13 1.922       .   S
Zn3          O5 1.942       .   S
Zn3          O8 1.922       .   S
Zn3         O11 1.922       .   S
Zn3         O14 1.922       .   S
Zn4          O5 1.942       .   S
Zn4         O12 1.922       .   S
Zn4         O15 1.922       .   S
Zn4         O16 1.922       .   S
O6          C18 1.304       .   A
O7          C19 1.304       .   A
O8          C20 1.304       .   A
O9          C18 1.304       .   A
O10         C20 1.304       .   A
O11         C19 1.304       .   A
O12         C21 1.304       .   A
O13         C22 1.304       .   A
O14         C21 1.304       .   A
O15         C22 1.304       .   A
O16         C23 1.304       .   A
O17         C23 1.304       .   A
C18        C288 1.540       .   S
C19        C185 1.540       .   S
C20        C325 1.540       .   S
C21        C241 1.540       .   S
C22        C297 1.540       .   S
C23        C232 1.540       .   S
Zn24        O28 1.942       .   S
Zn24        O29 1.922       .   S
Zn24        O33 1.922       .   S
Zn24        O40 1.922       .   S
Zn25        O28 1.942       .   S
Zn25        O30 1.922       .   S
Zn25        O32 1.922       .   S
Zn25        O36 1.922       .   S
Zn26        O28 1.942       .   S
Zn26        O31 1.922       .   S
Zn26        O34 1.922       .   S
Zn26        O37 1.922       .   S
Zn27        O28 1.942       .   S
Zn27        O35 1.922       .   S
Zn27        O38 1.922       .   S
Zn27        O39 1.922       .   S
O29         C41 1.304       .   A
O30         C42 1.304       .   A
O31         C43 1.304       .   A
O32         C41 1.304       .   A
O33         C43 1.304       .   A
O34         C42 1.304       .   A
O35         C44 1.304       .   A
O36         C45 1.304       .   A
O37         C44 1.304       .   A
O38         C45 1.304       .   A
O39         C46 1.304       .   A
O40         C46 1.304       .   A
C41        C428 1.540       .   S
C42        C381 1.540       .   S
C43        C204 1.540   1_655   S
C44        C456 1.540       .   S
C45        C213 1.540   1_656   S
C46        C353 1.540       .   S
Zn47        O51 1.942       .   S
Zn47        O52 1.922       .   S
Zn47        O56 1.922       .   S
Zn47        O63 1.922       .   S
Zn48        O51 1.942       .   S
Zn48        O53 1.922       .   S
Zn48        O55 1.922       .   S
Zn48        O59 1.922       .   S
Zn49        O51 1.942       .   S
Zn49        O54 1.922       .   S
Zn49        O57 1.922       .   S
Zn49        O60 1.922       .   S
Zn50        O51 1.942       .   S
Zn50        O58 1.922       .   S
Zn50        O61 1.922       .   S
Zn50        O62 1.922       .   S
O52         C64 1.304       .   A
O53         C65 1.304       .   A
O54         C66 1.304       .   A
O55         C64 1.304       .   A
O56         C66 1.304       .   A
O57         C65 1.304       .   A
O58         C67 1.304       .   A
O59         C68 1.304       .   A
O60         C67 1.304       .   A
O61         C68 1.304       .   A
O62         C69 1.304       .   A
O63         C69 1.304       .   A
C64        C316 1.540   1_655   S
C65        C484 1.540       .   S
C66        C521 1.540       .   S
C67        C344 1.540   1_665   S
C68        C549 1.540       .   S
C69        C493 1.540       .   S
Zn70        O74 1.942       .   S
Zn70        O75 1.922       .   S
Zn70        O79 1.922       .   S
Zn70        O86 1.922       .   S
Zn71        O74 1.942       .   S
Zn71        O76 1.922       .   S
Zn71        O78 1.922       .   S
Zn71        O82 1.922       .   S
Zn72        O74 1.942       .   S
Zn72        O77 1.922       .   S
Zn72        O80 1.922       .   S
Zn72        O83 1.922       .   S
Zn73        O74 1.942       .   S
Zn73        O81 1.922       .   S
Zn73        O84 1.922       .   S
Zn73        O85 1.922       .   S
O75         C87 1.304       .   A
O76         C88 1.304       .   A
O77         C89 1.304       .   A
O78         C87 1.304       .   A
O79         C89 1.304       .   A
O80         C88 1.304       .   A
O81         C90 1.304       .   A
O82         C91 1.304       .   A
O83         C90 1.304       .   A
O84         C91 1.304       .   A
O85         C92 1.304       .   A
O86         C92 1.304       .   A
C87        C409 1.540       .   S
C88        C465 1.540       .   S
C89        C605 1.540       .   S
C90        C437 1.540   1_565   S
C91        C577 1.540       .   S
C92        C512 1.540   1_556   S
Zn93        O97 1.942       .   S
Zn93        O98 1.922       .   S
Zn93       O102 1.922       .   S
Zn93       O109 1.922       .   S
Zn94        O97 1.942       .   S
Zn94        O99 1.922       .   S
Zn94       O101 1.922       .   S
Zn94       O105 1.922       .   S
Zn95        O97 1.942       .   S
Zn95       O100 1.922       .   S
Zn95       O103 1.922       .   S
Zn95       O106 1.922       .   S
Zn96        O97 1.942       .   S
Zn96       O104 1.922       .   S
Zn96       O107 1.922       .   S
Zn96       O108 1.922       .   S
O98        C110 1.304       .   A
O99        C111 1.304       .   A
O100       C112 1.304       .   A
O101       C110 1.304       .   A
O102       C112 1.304       .   A
O103       C111 1.304       .   A
O104       C113 1.304       .   A
O105       C114 1.304       .   A
O106       C113 1.304       .   A
O107       C114 1.304       .   A
O108       C115 1.304       .   A
O109       C115 1.304       .   A
C110       C260 1.540   1_565   S
C111       C633 1.540       .   S
C112       C717 1.540       .   S
C113       C269 1.540   1_665   S
C114       C708 1.540       .   S
C115       C661 1.540       .   S
Zn116      O120 1.942       .   S
Zn116      O121 1.922       .   S
Zn116      O125 1.922       .   S
Zn116      O132 1.922       .   S
Zn117      O120 1.942       .   S
Zn117      O122 1.922       .   S
Zn117      O124 1.922       .   S
Zn117      O128 1.922       .   S
Zn118      O120 1.942       .   S
Zn118      O123 1.922       .   S
Zn118      O126 1.922       .   S
Zn118      O129 1.922       .   S
Zn119      O120 1.942       .   S
Zn119      O127 1.922       .   S
Zn119      O130 1.922       .   S
Zn119      O131 1.922       .   S
O121       C133 1.304       .   A
O122       C134 1.304       .   A
O123       C135 1.304       .   A
O124       C133 1.304       .   A
O125       C135 1.304       .   A
O126       C134 1.304       .   A
O127       C136 1.304       .   A
O128       C137 1.304       .   A
O129       C136 1.304       .   A
O130       C137 1.304       .   A
O131       C138 1.304       .   A
O132       C138 1.304       .   A
C133       C372 1.540   1_465   S
C134       C652 1.540       .   S
C135       C745 1.540       .   S
C136       C400 1.540   1_565   S
C137       C773 1.540       .   S
C138       C680 1.540   1_556   S
Zn139      O143 1.942       .   S
Zn139      O144 1.922       .   S
Zn139      O148 1.922       .   S
Zn139      O155 1.922       .   S
Zn140      O143 1.942       .   S
Zn140      O145 1.922       .   S
Zn140      O147 1.922       .   S
Zn140      O151 1.922       .   S
Zn141      O143 1.942       .   S
Zn141      O146 1.922       .   S
Zn141      O149 1.922       .   S
Zn141      O152 1.922       .   S
Zn142      O143 1.942       .   S
Zn142      O150 1.922       .   S
Zn142      O153 1.922       .   S
Zn142      O154 1.922       .   S
O144       C156 1.304       .   A
O145       C157 1.304       .   A
O146       C158 1.304       .   A
O147       C156 1.304       .   A
O148       C158 1.304       .   A
O149       C157 1.304       .   A
O150       C159 1.304       .   A
O151       C160 1.304       .   A
O152       C159 1.304       .   A
O153       C160 1.304       .   A
O154       C161 1.304       .   A
O155       C161 1.304       .   A
C156       C540 1.540   1_455   S
C157       C689 1.540   1_545   S
C158       C829 1.540       .   S
C159       C568 1.540       .   S
C160       C801 1.540       .   S
C161       C736 1.540       .   S
Zn162      O166 1.942       .   S
Zn162      O167 1.922       .   S
Zn162      O171 1.922       .   S
Zn162      O178 1.922       .   S
Zn163      O166 1.942       .   S
Zn163      O168 1.922       .   S
Zn163      O170 1.922       .   S
Zn163      O174 1.922       .   S
Zn164      O166 1.942       .   S
Zn164      O169 1.922       .   S
Zn164      O172 1.922       .   S
Zn164      O175 1.922       .   S
Zn165      O166 1.942       .   S
Zn165      O173 1.922       .   S
Zn165      O176 1.922       .   S
Zn165      O177 1.922       .   S
O167       C179 1.304       .   A
O168       C180 1.304       .   A
O169       C181 1.304       .   A
O170       C179 1.304       .   A
O171       C181 1.304       .   A
O172       C180 1.304       .   A
O173       C182 1.304       .   A
O174       C183 1.304       .   A
O175       C182 1.304       .   A
O176       C183 1.304       .   A
O177       C184 1.304       .   A
O178       C184 1.304       .   A
C179       C820 1.540       .   S
C180       C792 1.540       .   S
C181       C596 1.540   1_455   S
C182       C848 1.540   1_556   S
C183       C624 1.540       .   S
C184       C764 1.540   1_545   S
C829       C830 0.027       .   A
C829       C834 0.026       .   A
C830       C831 0.027       .   A
C830       H837 0.021       .   A
C831       C832 0.027       .   A
C831       C836 0.022       .   A
C832       C833 0.027       .   A
C832       C835 0.028       .   A
C833       C834 0.027       .   A
C833       H839 0.021       .   A
C834       N838 0.026       .   A
C835       C842 0.027       .   A
C835       H845 0.021       .   A
C836       N846 0.022       .   A
N838       H840 0.020       .   A
N838       H841 0.020       .   A
C842       C843 0.032       .   A
C842       H844 0.021       .   A
C843       C847 0.032       .   A
C843       N850 0.029       .   A
C843       H856 0.021       .   A
C847       C848 0.032       .   A
C847       H853 0.021       .   A
C847       H855 0.021       .   A
C848       N849 0.029       .   A
C848       H854 0.021       .   A
N849       N850 0.029       .   A
N849       H852 0.020       .   A
N850       H851 0.020       .   A
C801       C802 0.027       .   A
C801       C806 0.026       .   A
C802       C803 0.027       .   A
C802       H809 0.021       .   A
C803       C804 0.027       .   A
C803       C808 0.022       .   A
C804       C805 0.027       .   A
C804       C807 0.028       .   A
C805       C806 0.027       .   A
C805       H811 0.021       .   A
C806       N810 0.026       .   A
C807       C814 0.027       .   A
C807       H817 0.021       .   A
C808       N818 0.022       .   A
N810       H812 0.020       .   A
N810       H813 0.020       .   A
C814       C815 0.032       .   A
C814       H816 0.021       .   A
C815       C819 0.032       .   A
C815       N822 0.029       .   A
C815       H828 0.021       .   A
C819       C820 0.032       .   A
C819       H825 0.021       .   A
C819       H827 0.021       .   A
C820       N821 0.029       .   A
C820       H826 0.021       .   A
N821       N822 0.029       .   A
N821       H824 0.020       .   A
N822       H823 0.020       .   A
C773       C774 0.027       .   A
C773       C778 0.026       .   A
C774       C775 0.027       .   A
C774       H781 0.021       .   A
C775       C776 0.027       .   A
C775       C780 0.022       .   A
C776       C777 0.027       .   A
C776       C779 0.028       .   A
C777       C778 0.027       .   A
C777       H783 0.021       .   A
C778       N782 0.026       .   A
C779       C786 0.027       .   A
C779       H789 0.021       .   A
C780       N790 0.022       .   A
N782       H784 0.020       .   A
N782       H785 0.020       .   A
C786       C787 0.032       .   A
C786       H788 0.021       .   A
C787       C791 0.032       .   A
C787       N794 0.029       .   A
C787       H800 0.021       .   A
C791       C792 0.032       .   A
C791       H797 0.021       .   A
C791       H799 0.021       .   A
C792       N793 0.029       .   A
C792       H798 0.021       .   A
N793       N794 0.029       .   A
N793       H796 0.020       .   A
N794       H795 0.020       .   A
C745       C746 0.027       .   A
C745       C750 0.026       .   A
C746       C747 0.027       .   A
C746       H753 0.021       .   A
C747       C748 0.027       .   A
C747       C752 0.022       .   A
C748       C749 0.027       .   A
C748       C751 0.028       .   A
C749       C750 0.027       .   A
C749       H755 0.021       .   A
C750       N754 0.026       .   A
C751       C758 0.027       .   A
C751       H761 0.021       .   A
C752       N762 0.022       .   A
N754       H756 0.020       .   A
N754       H757 0.020       .   A
C758       C759 0.032       .   A
C758       H760 0.021       .   A
C759       C763 0.032       .   A
C759       N766 0.029       .   A
C759       H772 0.021       .   A
C763       C764 0.032       .   A
C763       H769 0.021       .   A
C763       H771 0.021       .   A
C764       N765 0.029       .   A
C764       H770 0.021       .   A
N765       N766 0.029       .   A
N765       H768 0.020       .   A
N766       H767 0.020       .   A
C717       C718 0.027       .   A
C717       C722 0.026       .   A
C718       C719 0.027       .   A
C718       H725 0.021       .   A
C719       C720 0.027       .   A
C719       C724 0.022       .   A
C720       C721 0.027       .   A
C720       C723 0.028       .   A
C721       C722 0.027       .   A
C721       H727 0.021       .   A
C722       N726 0.026       .   A
C723       C730 0.027       .   A
C723       H733 0.021       .   A
C724       N734 0.022       .   A
N726       H728 0.020       .   A
N726       H729 0.020       .   A
C730       C731 0.032       .   A
C730       H732 0.021       .   A
C731       C735 0.032       .   A
C731       N738 0.029       .   A
C731       H744 0.021       .   A
C735       C736 0.032       .   A
C735       H741 0.021       .   A
C735       H743 0.021       .   A
C736       N737 0.029       .   A
C736       H742 0.021       .   A
N737       N738 0.029       .   A
N737       H740 0.020       .   A
N738       H739 0.020       .   A
C689       C690 0.027       .   A
C689       C694 0.026       .   A
C690       C691 0.027       .   A
C690       H697 0.021       .   A
C691       C692 0.027       .   A
C691       C696 0.022       .   A
C692       C693 0.027       .   A
C692       C695 0.028       .   A
C693       C694 0.027       .   A
C693       H699 0.021       .   A
C694       N698 0.026       .   A
C695       C702 0.027       .   A
C695       H705 0.021       .   A
C696       N706 0.022       .   A
N698       H700 0.020       .   A
N698       H701 0.020       .   A
C702       C703 0.032       .   A
C702       H704 0.021       .   A
C703       C707 0.032       .   A
C703       N710 0.029       .   A
C703       H716 0.021       .   A
C707       C708 0.032       .   A
C707       H713 0.021       .   A
C707       H715 0.021       .   A
C708       N709 0.029       .   A
C708       H714 0.021       .   A
N709       N710 0.029       .   A
N709       H712 0.020       .   A
N710       H711 0.020       .   A
C661       C662 0.027       .   A
C661       C666 0.026       .   A
C662       C663 0.027       .   A
C662       H669 0.021       .   A
C663       C664 0.027       .   A
C663       C668 0.022       .   A
C664       C665 0.027       .   A
C664       C667 0.028       .   A
C665       C666 0.027       .   A
C665       H671 0.021       .   A
C666       N670 0.026       .   A
C667       C674 0.027       .   A
C667       H677 0.021       .   A
C668       N678 0.022       .   A
N670       H672 0.020       .   A
N670       H673 0.020       .   A
C674       C675 0.032       .   A
C674       H676 0.021       .   A
C675       C679 0.032       .   A
C675       N682 0.029       .   A
C675       H688 0.021       .   A
C679       C680 0.032       .   A
C679       H685 0.021       .   A
C679       H687 0.021       .   A
C680       N681 0.029       .   A
C680       H686 0.021       .   A
N681       N682 0.029       .   A
N681       H684 0.020       .   A
N682       H683 0.020       .   A
C633       C634 0.027       .   A
C633       C638 0.026       .   A
C634       C635 0.027       .   A
C634       H641 0.021       .   A
C635       C636 0.027       .   A
C635       C640 0.022       .   A
C636       C637 0.027       .   A
C636       C639 0.028       .   A
C637       C638 0.027       .   A
C637       H643 0.021       .   A
C638       N642 0.026       .   A
C639       C646 0.027       .   A
C639       H649 0.021       .   A
C640       N650 0.022       .   A
N642       H644 0.020       .   A
N642       H645 0.020       .   A
C646       C647 0.032       .   A
C646       H648 0.021       .   A
C647       C651 0.032       .   A
C647       N654 0.029       .   A
C647       H660 0.021       .   A
C651       C652 0.032       .   A
C651       H657 0.021       .   A
C651       H659 0.021       .   A
C652       N653 0.029       .   A
C652       H658 0.021       .   A
N653       N654 0.029       .   A
N653       H656 0.020       .   A
N654       H655 0.020       .   A
C605       C606 0.027       .   A
C605       C610 0.026       .   A
C606       C607 0.027       .   A
C606       H613 0.021       .   A
C607       C608 0.027       .   A
C607       C612 0.022       .   A
C608       C609 0.027       .   A
C608       C611 0.028       .   A
C609       C610 0.027       .   A
C609       H615 0.021       .   A
C610       N614 0.026       .   A
C611       C618 0.027       .   A
C611       H621 0.021       .   A
C612       N622 0.022       .   A
N614       H616 0.020       .   A
N614       H617 0.020       .   A
C618       C619 0.032       .   A
C618       H620 0.021       .   A
C619       C623 0.032       .   A
C619       N626 0.029       .   A
C619       H632 0.021       .   A
C623       C624 0.032       .   A
C623       H629 0.021       .   A
C623       H631 0.021       .   A
C624       N625 0.029       .   A
C624       H630 0.021       .   A
N625       N626 0.029       .   A
N625       H628 0.020       .   A
N626       H627 0.020       .   A
C577       C578 0.027       .   A
C577       C582 0.026       .   A
C578       C579 0.027       .   A
C578       H585 0.021       .   A
C579       C580 0.027       .   A
C579       C584 0.022       .   A
C580       C581 0.027       .   A
C580       C583 0.028       .   A
C581       C582 0.027       .   A
C581       H587 0.021       .   A
C582       N586 0.026       .   A
C583       C590 0.027       .   A
C583       H593 0.021       .   A
C584       N594 0.022       .   A
N586       H588 0.020       .   A
N586       H589 0.020       .   A
C590       C591 0.032       .   A
C590       H592 0.021       .   A
C591       C595 0.032       .   A
C591       N598 0.029       .   A
C591       H604 0.021       .   A
C595       C596 0.032       .   A
C595       H601 0.021       .   A
C595       H603 0.021       .   A
C596       N597 0.029       .   A
C596       H602 0.021       .   A
N597       N598 0.029       .   A
N597       H600 0.020       .   A
N598       H599 0.020       .   A
C549       C550 0.027       .   A
C549       C554 0.026       .   A
C550       C551 0.027       .   A
C550       H557 0.021       .   A
C551       C552 0.027       .   A
C551       C556 0.022       .   A
C552       C553 0.027       .   A
C552       C555 0.028       .   A
C553       C554 0.027       .   A
C553       H559 0.021       .   A
C554       N558 0.026       .   A
C555       C562 0.027       .   A
C555       H565 0.021       .   A
C556       N566 0.022       .   A
N558       H560 0.020       .   A
N558       H561 0.020       .   A
C562       C563 0.032       .   A
C562       H564 0.021       .   A
C563       C567 0.032       .   A
C563       N570 0.029       .   A
C563       H576 0.021       .   A
C567       C568 0.032       .   A
C567       H573 0.021       .   A
C567       H575 0.021       .   A
C568       N569 0.029       .   A
C568       H574 0.021       .   A
N569       N570 0.029       .   A
N569       H572 0.020       .   A
N570       H571 0.020       .   A
C521       C522 0.027       .   A
C521       C526 0.026       .   A
C522       C523 0.027       .   A
C522       H529 0.021       .   A
C523       C524 0.027       .   A
C523       C528 0.022       .   A
C524       C525 0.027       .   A
C524       C527 0.028       .   A
C525       C526 0.027       .   A
C525       H531 0.021       .   A
C526       N530 0.026       .   A
C527       C534 0.027       .   A
C527       H537 0.021       .   A
C528       N538 0.022       .   A
N530       H532 0.020       .   A
N530       H533 0.020       .   A
C534       C535 0.032       .   A
C534       H536 0.021       .   A
C535       C539 0.032       .   A
C535       N542 0.029       .   A
C535       H548 0.021       .   A
C539       C540 0.032       .   A
C539       H545 0.021       .   A
C539       H547 0.021       .   A
C540       N541 0.029       .   A
C540       H546 0.021       .   A
N541       N542 0.029       .   A
N541       H544 0.020       .   A
N542       H543 0.020       .   A
C493       C494 0.027       .   A
C493       C498 0.026       .   A
C494       C495 0.027       .   A
C494       H501 0.021       .   A
C495       C496 0.027       .   A
C495       C500 0.022       .   A
C496       C497 0.027       .   A
C496       C499 0.028       .   A
C497       C498 0.027       .   A
C497       H503 0.021       .   A
C498       N502 0.026       .   A
C499       C506 0.027       .   A
C499       H509 0.021       .   A
C500       N510 0.022       .   A
N502       H504 0.020       .   A
N502       H505 0.020       .   A
C506       C507 0.032       .   A
C506       H508 0.021       .   A
C507       C511 0.032       .   A
C507       N514 0.029       .   A
C507       H520 0.021       .   A
C511       C512 0.032       .   A
C511       H517 0.021       .   A
C511       H519 0.021       .   A
C512       N513 0.029       .   A
C512       H518 0.021       .   A
N513       N514 0.029       .   A
N513       H516 0.020       .   A
N514       H515 0.020       .   A
C465       C466 0.027       .   A
C465       C470 0.026       .   A
C466       C467 0.027       .   A
C466       H473 0.021       .   A
C467       C468 0.027       .   A
C467       C472 0.022       .   A
C468       C469 0.027       .   A
C468       C471 0.028       .   A
C469       C470 0.027       .   A
C469       H475 0.021       .   A
C470       N474 0.026       .   A
C471       C478 0.027       .   A
C471       H481 0.021       .   A
C472       N482 0.022       .   A
N474       H476 0.020       .   A
N474       H477 0.020       .   A
C478       C479 0.032       .   A
C478       H480 0.021       .   A
C479       C483 0.032       .   A
C479       N486 0.029       .   A
C479       H492 0.021       .   A
C483       C484 0.032       .   A
C483       H489 0.021       .   A
C483       H491 0.021       .   A
C484       N485 0.029       .   A
C484       H490 0.021       .   A
N485       N486 0.029       .   A
N485       H488 0.020       .   A
N486       H487 0.020       .   A
C437       C438 0.027       .   A
C437       C442 0.026       .   A
C438       C439 0.027       .   A
C438       H445 0.021       .   A
C439       C440 0.027       .   A
C439       C444 0.022       .   A
C440       C441 0.027       .   A
C440       C443 0.028       .   A
C441       C442 0.027       .   A
C441       H447 0.021       .   A
C442       N446 0.026       .   A
C443       C450 0.027       .   A
C443       H453 0.021       .   A
C444       N454 0.022       .   A
N446       H448 0.020       .   A
N446       H449 0.020       .   A
C450       C451 0.032       .   A
C450       H452 0.021       .   A
C451       C455 0.032       .   A
C451       N458 0.029       .   A
C451       H464 0.021       .   A
C455       C456 0.032       .   A
C455       H461 0.021       .   A
C455       H463 0.021       .   A
C456       N457 0.029       .   A
C456       H462 0.021       .   A
N457       N458 0.029       .   A
N457       H460 0.020       .   A
N458       H459 0.020       .   A
C409       C410 0.027       .   A
C409       C414 0.026       .   A
C410       C411 0.027       .   A
C410       H417 0.021       .   A
C411       C412 0.027       .   A
C411       C416 0.022       .   A
C412       C413 0.027       .   A
C412       C415 0.028       .   A
C413       C414 0.027       .   A
C413       H419 0.021       .   A
C414       N418 0.026       .   A
C415       C422 0.027       .   A
C415       H425 0.021       .   A
C416       N426 0.022       .   A
N418       H420 0.020       .   A
N418       H421 0.020       .   A
C422       C423 0.032       .   A
C422       H424 0.021       .   A
C423       C427 0.032       .   A
C423       N430 0.029       .   A
C423       H436 0.021       .   A
C427       C428 0.032       .   A
C427       H433 0.021       .   A
C427       H435 0.021       .   A
C428       N429 0.029       .   A
C428       H434 0.021       .   A
N429       N430 0.029       .   A
N429       H432 0.020       .   A
N430       H431 0.020       .   A
C381       C382 0.027       .   A
C381       C386 0.026       .   A
C382       C383 0.027       .   A
C382       H389 0.021       .   A
C383       C384 0.027       .   A
C383       C388 0.022       .   A
C384       C385 0.027       .   A
C384       C387 0.028       .   A
C385       C386 0.027       .   A
C385       H391 0.021       .   A
C386       N390 0.026       .   A
C387       C394 0.027       .   A
C387       H397 0.021       .   A
C388       N398 0.022       .   A
N390       H392 0.020       .   A
N390       H393 0.020       .   A
C394       C395 0.032       .   A
C394       H396 0.021       .   A
C395       C399 0.032       .   A
C395       N402 0.029       .   A
C395       H408 0.021       .   A
C399       C400 0.032       .   A
C399       H405 0.021       .   A
C399       H407 0.021       .   A
C400       N401 0.029       .   A
C400       H406 0.021       .   A
N401       N402 0.029       .   A
N401       H404 0.020       .   A
N402       H403 0.020       .   A
C353       C354 0.027       .   A
C353       C358 0.026       .   A
C354       C355 0.027       .   A
C354       H361 0.021       .   A
C355       C356 0.027       .   A
C355       C360 0.022       .   A
C356       C357 0.027       .   A
C356       C359 0.028       .   A
C357       C358 0.027       .   A
C357       H363 0.021       .   A
C358       N362 0.026       .   A
C359       C366 0.027       .   A
C359       H369 0.021       .   A
C360       N370 0.022       .   A
N362       H364 0.020       .   A
N362       H365 0.020       .   A
C366       C367 0.032       .   A
C366       H368 0.021       .   A
C367       C371 0.032       .   A
C367       N374 0.029       .   A
C367       H380 0.021       .   A
C371       C372 0.032       .   A
C371       H377 0.021       .   A
C371       H379 0.021       .   A
C372       N373 0.029       .   A
C372       H378 0.021       .   A
N373       N374 0.029       .   A
N373       H376 0.020       .   A
N374       H375 0.020       .   A
C325       C326 0.027       .   A
C325       C330 0.026       .   A
C326       C327 0.027       .   A
C326       H333 0.021       .   A
C327       C328 0.027       .   A
C327       C332 0.022       .   A
C328       C329 0.027       .   A
C328       C331 0.028       .   A
C329       C330 0.027       .   A
C329       H335 0.021       .   A
C330       N334 0.026       .   A
C331       C338 0.027       .   A
C331       H341 0.021       .   A
C332       N342 0.022       .   A
N334       H336 0.020       .   A
N334       H337 0.020       .   A
C338       C339 0.032       .   A
C338       H340 0.021       .   A
C339       C343 0.032       .   A
C339       N346 0.029       .   A
C339       H352 0.021       .   A
C343       C344 0.032       .   A
C343       H349 0.021       .   A
C343       H351 0.021       .   A
C344       N345 0.029       .   A
C344       H350 0.021       .   A
N345       N346 0.029       .   A
N345       H348 0.020       .   A
N346       H347 0.020       .   A
C297       C298 0.027       .   A
C297       C302 0.026       .   A
C298       C299 0.027       .   A
C298       H305 0.021       .   A
C299       C300 0.027       .   A
C299       C304 0.022       .   A
C300       C301 0.027       .   A
C300       C303 0.028       .   A
C301       C302 0.027       .   A
C301       H307 0.021       .   A
C302       N306 0.026       .   A
C303       C310 0.027       .   A
C303       H313 0.021       .   A
C304       N314 0.022       .   A
N306       H308 0.020       .   A
N306       H309 0.020       .   A
C310       C311 0.032       .   A
C310       H312 0.021       .   A
C311       C315 0.032       .   A
C311       N318 0.029       .   A
C311       H324 0.021       .   A
C315       C316 0.032       .   A
C315       H321 0.021       .   A
C315       H323 0.021       .   A
C316       N317 0.029       .   A
C316       H322 0.021       .   A
N317       N318 0.029       .   A
N317       H320 0.020       .   A
N318       H319 0.020       .   A
C269       C270 0.027       .   A
C269       C274 0.026       .   A
C270       C271 0.027       .   A
C270       H277 0.021       .   A
C271       C272 0.027       .   A
C271       C276 0.022       .   A
C272       C273 0.027       .   A
C272       C275 0.028       .   A
C273       C274 0.027       .   A
C273       H279 0.021       .   A
C274       N278 0.026       .   A
C275       C282 0.027       .   A
C275       H285 0.021       .   A
C276       N286 0.022       .   A
N278       H280 0.020       .   A
N278       H281 0.020       .   A
C282       C283 0.032       .   A
C282       H284 0.021       .   A
C283       C287 0.032       .   A
C283       N290 0.029       .   A
C283       H296 0.021       .   A
C287       C288 0.032       .   A
C287       H293 0.021       .   A
C287       H295 0.021       .   A
C288       N289 0.029       .   A
C288       H294 0.021       .   A
N289       N290 0.029       .   A
N289       H292 0.020       .   A
N290       H291 0.020       .   A
C241       C242 0.027       .   A
C241       C246 0.026       .   A
C242       C243 0.027       .   A
C242       H249 0.021       .   A
C243       C244 0.027       .   A
C243       C248 0.022       .   A
C244       C245 0.027       .   A
C244       C247 0.028       .   A
C245       C246 0.027       .   A
C245       H251 0.021       .   A
C246       N250 0.026       .   A
C247       C254 0.027       .   A
C247       H257 0.021       .   A
C248       N258 0.022       .   A
N250       H252 0.020       .   A
N250       H253 0.020       .   A
C254       C255 0.032       .   A
C254       H256 0.021       .   A
C255       C259 0.032       .   A
C255       N262 0.029       .   A
C255       H268 0.021       .   A
C259       C260 0.032       .   A
C259       H265 0.021       .   A
C259       H267 0.021       .   A
C260       N261 0.029       .   A
C260       H266 0.021       .   A
N261       N262 0.029       .   A
N261       H264 0.020       .   A
N262       H263 0.020       .   A
C213       C214 0.027       .   A
C213       C218 0.026       .   A
C214       C215 0.027       .   A
C214       H221 0.021       .   A
C215       C216 0.027       .   A
C215       C220 0.022       .   A
C216       C217 0.027       .   A
C216       C219 0.028       .   A
C217       C218 0.027       .   A
C217       H223 0.021       .   A
C218       N222 0.026       .   A
C219       C226 0.027       .   A
C219       H229 0.021       .   A
C220       N230 0.022       .   A
N222       H224 0.020       .   A
N222       H225 0.020       .   A
C226       C227 0.032       .   A
C226       H228 0.021       .   A
C227       C231 0.032       .   A
C227       N234 0.029       .   A
C227       H240 0.021       .   A
C231       C232 0.032       .   A
C231       H237 0.021       .   A
C231       H239 0.021       .   A
C232       N233 0.029       .   A
C232       H238 0.021       .   A
N233       N234 0.029       .   A
N233       H236 0.020       .   A
N234       H235 0.020       .   A
C185       C186 0.027       .   A
C185       C190 0.026       .   A
C186       C187 0.027       .   A
C186       H193 0.021       .   A
C187       C188 0.027       .   A
C187       C192 0.022       .   A
C188       C189 0.027       .   A
C188       C191 0.028       .   A
C189       C190 0.027       .   A
C189       H195 0.021       .   A
C190       N194 0.026       .   A
C191       C198 0.027       .   A
C191       H201 0.021       .   A
C192       N202 0.022       .   A
N194       H196 0.020       .   A
N194       H197 0.020       .   A
C198       C199 0.032       .   A
C198       H200 0.021       .   A
C199       C203 0.032       .   A
C199       N206 0.029       .   A
C199       H212 0.021       .   A
C203       C204 0.032       .   A
C203       H209 0.021       .   A
C203       H211 0.021       .   A
C204       N205 0.029       .   A
C204       H210 0.021       .   A
N205       N206 0.029       .   A
N205       H208 0.020       .   A
N206       H207 0.020       .   A
