data_pcu_v1-6c_Zn_1_Ch_1-70_fer_tobacco
_audit_creation_date              2021-04-07
_audit_creation_method            'tobacco_3.0'
_symmetry_space_group_name_H-M    'P1'
_symmetry_Int_Tables_number       1
_symmetry_cell_setting            triclinic
loop_
_symmetry_equiv_pos_as_xyz
  x,y,z
_cell_length_a                    48.06272974621287
_cell_length_b                    48.06272974621287
_cell_length_c                    48.06272974621287
_cell_angle_alpha                 90.0
_cell_angle_beta                  90.0
_cell_angle_gamma                 90.0
loop_
_atom_site_label
_atom_site_type_symbol
_atom_site_fract_x
_atom_site_fract_y
_atom_site_fract_z
_atom_site_charge
Zn1       Zn   -0.0233278469   -0.0233278469    0.0233278469          1.4972
Zn2       Zn    0.0233278469    0.0233278469    0.0233278469          1.4936
Zn3       Zn    0.0233278469   -0.0233278469   -0.0233278469          1.4911
Zn4       Zn   -0.0233278469    0.0233278469   -0.0233278469          1.4948
O5         O    0.0000000000    0.0000000000    0.0000000000         -2.1931
O6         O   -0.0171442614   -0.0171442614    0.0623476864         -1.0994
O7         O    0.0623476864    0.0171442614    0.0171442614         -1.0976
O8         O    0.0171442614   -0.0623476864   -0.0171442614         -1.0928
O9         O    0.0171442614    0.0171442614    0.0623476864         -1.0996
O10        O   -0.0171442614   -0.0623476864    0.0171442614         -1.0956
O11        O    0.0623476864   -0.0171442614   -0.0171442614         -1.1014
O12        O   -0.0171442614    0.0171442614   -0.0623476864         -1.0953
O13        O    0.0171442614    0.0623476864    0.0171442614         -1.1029
O14        O    0.0171442614   -0.0171442614   -0.0623476864         -1.0968
O15        O   -0.0171442614    0.0623476864   -0.0171442614         -1.1014
O16        O   -0.0623476864    0.0171442614   -0.0171442614         -1.1005
O17        O   -0.0623476864   -0.0171442614    0.0171442614         -1.0984
C18        C   -0.0000000000   -0.0000000000    0.0745442470          0.4195
C19        C    0.0745442470   -0.0000000000   -0.0000000000          0.4244
C20        C   -0.0000000000   -0.0745442470    0.0000000000           0.414
C21        C    0.0000000000    0.0000000000   -0.0745442470          0.4177
C22        C    0.0000000000    0.0745442470   -0.0000000000          0.4291
C23        C   -0.0745442470    0.0000000000    0.0000000000          0.4196
Zn24      Zn    0.9766721531    0.0233278469    0.4766721531          1.4972
Zn25      Zn    1.0233278469   -0.0233278469    0.4766721531          1.4936
Zn26      Zn    1.0233278469    0.0233278469    0.5233278469          1.4911
Zn27      Zn    0.9766721531   -0.0233278469    0.5233278469          1.4948
O28        O    1.0000000000    0.0000000000    0.5000000000         -2.1931
O29        O    0.9828557386    0.0171442614    0.4376523136         -1.0994
O30        O    1.0623476864   -0.0171442614    0.4828557386         -1.0976
O31        O    1.0171442614    0.0623476864    0.5171442614         -1.0928
O32        O    1.0171442614   -0.0171442614    0.4376523136         -1.0996
O33        O    0.9828557386    0.0623476864    0.4828557386         -1.0956
O34        O    1.0623476864    0.0171442614    0.5171442614         -1.1014
O35        O    0.9828557386   -0.0171442614    0.5623476864         -1.0953
O36        O    1.0171442614   -0.0623476864    0.4828557386         -1.1029
O37        O    1.0171442614    0.0171442614    0.5623476864         -1.0968
O38        O    0.9828557386   -0.0623476864    0.5171442614         -1.1014
O39        O    0.9376523136   -0.0171442614    0.5171442614         -1.1005
O40        O    0.9376523136    0.0171442614    0.4828557386         -1.0984
C41        C    1.0000000000    0.0000000000    0.4254557530          0.4195
C42        C    1.0745442470    0.0000000000    0.5000000000          0.4244
C43        C    1.0000000000    0.0745442470    0.5000000000           0.414
C44        C    1.0000000000    0.0000000000    0.5745442470          0.4177
C45        C    1.0000000000   -0.0745442470    0.5000000000          0.4291
C46        C    0.9254557530    0.0000000000    0.5000000000          0.4196
Zn47      Zn    1.0233278469    0.4766721531   -0.0233278469          1.4972
Zn48      Zn    0.9766721531    0.4766721531    0.0233278469          1.4936
Zn49      Zn    1.0233278469    0.5233278469    0.0233278469          1.4911
Zn50      Zn    0.9766721531    0.5233278469   -0.0233278469          1.4948
O51        O    1.0000000000    0.5000000000    0.0000000000         -2.1931
O52        O    1.0171442614    0.4376523136   -0.0171442614         -1.0994
O53        O    0.9828557386    0.4828557386    0.0623476864         -1.0976
O54        O    1.0623476864    0.5171442614    0.0171442614         -1.0928
O55        O    0.9828557386    0.4376523136    0.0171442614         -1.0996
O56        O    1.0623476864    0.4828557386   -0.0171442614         -1.0956
O57        O    1.0171442614    0.5171442614    0.0623476864         -1.1014
O58        O    0.9828557386    0.5623476864   -0.0171442614         -1.0953
O59        O    0.9376523136    0.4828557386    0.0171442614         -1.1029
O60        O    1.0171442614    0.5623476864    0.0171442614         -1.0968
O61        O    0.9376523136    0.5171442614   -0.0171442614         -1.1014
O62        O    0.9828557386    0.5171442614   -0.0623476864         -1.1005
O63        O    1.0171442614    0.4828557386   -0.0623476864         -1.0984
C64        C    1.0000000000    0.4254557530    0.0000000000          0.4195
C65        C    1.0000000000    0.5000000000    0.0745442470          0.4244
C66        C    1.0745442470    0.5000000000    0.0000000000           0.414
C67        C    1.0000000000    0.5745442470    0.0000000000          0.4177
C68        C    0.9254557530    0.5000000000    0.0000000000          0.4291
C69        C    1.0000000000    0.5000000000   -0.0745442470          0.4196
Zn70      Zn    0.9766721531    0.4766721531    0.5233278469          1.4972
Zn71      Zn    1.0233278469    0.4766721531    0.4766721531          1.4936
Zn72      Zn    0.9766721531    0.5233278469    0.4766721531          1.4911
Zn73      Zn    1.0233278469    0.5233278469    0.5233278469          1.4948
O74        O    1.0000000000    0.5000000000    0.5000000000         -2.1931
O75        O    0.9828557386    0.4376523136    0.5171442614         -1.0994
O76        O    1.0171442614    0.4828557386    0.4376523136         -1.0976
O77        O    0.9376523136    0.5171442614    0.4828557386         -1.0928
O78        O    1.0171442614    0.4376523136    0.4828557386         -1.0996
O79        O    0.9376523136    0.4828557386    0.5171442614         -1.0956
O80        O    0.9828557386    0.5171442614    0.4376523136         -1.1014
O81        O    1.0171442614    0.5623476864    0.5171442614         -1.0953
O82        O    1.0623476864    0.4828557386    0.4828557386         -1.1029
O83        O    0.9828557386    0.5623476864    0.4828557386         -1.0968
O84        O    1.0623476864    0.5171442614    0.5171442614         -1.1014
O85        O    1.0171442614    0.5171442614    0.5623476864         -1.1005
O86        O    0.9828557386    0.4828557386    0.5623476864         -1.0984
C87        C    1.0000000000    0.4254557530    0.5000000000          0.4195
C88        C    1.0000000000    0.5000000000    0.4254557530          0.4244
C89        C    0.9254557530    0.5000000000    0.5000000000           0.414
C90        C    1.0000000000    0.5745442470    0.5000000000          0.4177
C91        C    1.0745442470    0.5000000000    0.5000000000          0.4291
C92        C    1.0000000000    0.5000000000    0.5745442470          0.4196
Zn93      Zn    0.4766721531    0.9766721531   -0.0233278469          1.4972
Zn94      Zn    0.4766721531    1.0233278469    0.0233278469          1.4936
Zn95      Zn    0.5233278469    0.9766721531    0.0233278469          1.4911
Zn96      Zn    0.5233278469    1.0233278469   -0.0233278469          1.4948
O97        O    0.5000000000    1.0000000000    0.0000000000         -2.1931
O98        O    0.4376523136    0.9828557386   -0.0171442614         -1.0994
O99        O    0.4828557386    1.0171442614    0.0623476864         -1.0976
O100       O    0.5171442614    0.9376523136    0.0171442614         -1.0928
O101       O    0.4376523136    1.0171442614    0.0171442614         -1.0996
O102       O    0.4828557386    0.9376523136   -0.0171442614         -1.0956
O103       O    0.5171442614    0.9828557386    0.0623476864         -1.1014
O104       O    0.5623476864    1.0171442614   -0.0171442614         -1.0953
O105       O    0.4828557386    1.0623476864    0.0171442614         -1.1029
O106       O    0.5623476864    0.9828557386    0.0171442614         -1.0968
O107       O    0.5171442614    1.0623476864   -0.0171442614         -1.1014
O108       O    0.5171442614    1.0171442614   -0.0623476864         -1.1005
O109       O    0.4828557386    0.9828557386   -0.0623476864         -1.0984
C110       C    0.4254557530    1.0000000000    0.0000000000          0.4195
C111       C    0.5000000000    1.0000000000    0.0745442470          0.4244
C112       C    0.5000000000    0.9254557530    0.0000000000           0.414
C113       C    0.5745442470    1.0000000000    0.0000000000          0.4177
C114       C    0.5000000000    1.0745442470    0.0000000000          0.4291
C115       C    0.5000000000    1.0000000000   -0.0745442470          0.4196
Zn116     Zn    0.4766721531    1.0233278469    0.5233278469          1.4972
Zn117     Zn    0.4766721531    0.9766721531    0.4766721531          1.4936
Zn118     Zn    0.5233278469    1.0233278469    0.4766721531          1.4911
Zn119     Zn    0.5233278469    0.9766721531    0.5233278469          1.4948
O120       O    0.5000000000    1.0000000000    0.5000000000         -2.1931
O121       O    0.4376523136    1.0171442614    0.5171442614         -1.0994
O122       O    0.4828557386    0.9828557386    0.4376523136         -1.0976
O123       O    0.5171442614    1.0623476864    0.4828557386         -1.0928
O124       O    0.4376523136    0.9828557386    0.4828557386         -1.0996
O125       O    0.4828557386    1.0623476864    0.5171442614         -1.0956
O126       O    0.5171442614    1.0171442614    0.4376523136         -1.1014
O127       O    0.5623476864    0.9828557386    0.5171442614         -1.0953
O128       O    0.4828557386    0.9376523136    0.4828557386         -1.1029
O129       O    0.5623476864    1.0171442614    0.4828557386         -1.0968
O130       O    0.5171442614    0.9376523136    0.5171442614         -1.1014
O131       O    0.5171442614    0.9828557386    0.5623476864         -1.1005
O132       O    0.4828557386    1.0171442614    0.5623476864         -1.0984
C133       C    0.4254557530    1.0000000000    0.5000000000          0.4195
C134       C    0.5000000000    1.0000000000    0.4254557530          0.4244
C135       C    0.5000000000    1.0745442470    0.5000000000           0.414
C136       C    0.5745442470    1.0000000000    0.5000000000          0.4177
C137       C    0.5000000000    0.9254557530    0.5000000000          0.4291
C138       C    0.5000000000    1.0000000000    0.5745442470          0.4196
Zn139     Zn    0.4766721531    0.5233278469   -0.0233278469          1.4972
Zn140     Zn    0.4766721531    0.4766721531    0.0233278469          1.4936
Zn141     Zn    0.5233278469    0.4766721531   -0.0233278469          1.4911
Zn142     Zn    0.5233278469    0.5233278469    0.0233278469          1.4948
O143       O    0.5000000000    0.5000000000    0.0000000000         -2.1931
O144       O    0.4376523136    0.5171442614   -0.0171442614         -1.0994
O145       O    0.4828557386    0.4376523136    0.0171442614         -1.0976
O146       O    0.5171442614    0.4828557386   -0.0623476864         -1.0928
O147       O    0.4376523136    0.4828557386    0.0171442614         -1.0996
O148       O    0.4828557386    0.5171442614   -0.0623476864         -1.0956
O149       O    0.5171442614    0.4376523136   -0.0171442614         -1.1014
O150       O    0.5623476864    0.5171442614    0.0171442614         -1.0953
O151       O    0.4828557386    0.4828557386    0.0623476864         -1.1029
O152       O    0.5623476864    0.4828557386   -0.0171442614         -1.0968
O153       O    0.5171442614    0.5171442614    0.0623476864         -1.1014
O154       O    0.5171442614    0.5623476864    0.0171442614         -1.1005
O155       O    0.4828557386    0.5623476864   -0.0171442614         -1.0984
C156       C    0.4254557530    0.5000000000    0.0000000000          0.4195
C157       C    0.5000000000    0.4254557530    0.0000000000          0.4244
C158       C    0.5000000000    0.5000000000   -0.0745442470           0.414
C159       C    0.5745442470    0.5000000000    0.0000000000          0.4177
C160       C    0.5000000000    0.5000000000    0.0745442470          0.4291
C161       C    0.5000000000    0.5745442470    0.0000000000          0.4196
Zn162     Zn    0.4766721531    0.5233278469    0.4766721531          1.4972
Zn163     Zn    0.4766721531    0.4766721531    0.5233278469          1.4936
Zn164     Zn    0.5233278469    0.4766721531    0.4766721531          1.4911
Zn165     Zn    0.5233278469    0.5233278469    0.5233278469          1.4948
O166       O    0.5000000000    0.5000000000    0.5000000000         -2.1931
O167       O    0.4376523136    0.5171442614    0.4828557386         -1.0994
O168       O    0.4828557386    0.4376523136    0.5171442614         -1.0976
O169       O    0.5171442614    0.4828557386    0.4376523136         -1.0928
O170       O    0.4376523136    0.4828557386    0.5171442614         -1.0996
O171       O    0.4828557386    0.5171442614    0.4376523136         -1.0956
O172       O    0.5171442614    0.4376523136    0.4828557386         -1.1014
O173       O    0.5623476864    0.5171442614    0.5171442614         -1.0953
O174       O    0.4828557386    0.4828557386    0.5623476864         -1.1029
O175       O    0.5623476864    0.4828557386    0.4828557386         -1.0968
O176       O    0.5171442614    0.5171442614    0.5623476864         -1.1014
O177       O    0.5171442614    0.5623476864    0.5171442614         -1.1005
O178       O    0.4828557386    0.5623476864    0.4828557386         -1.0984
C179       C    0.4254557530    0.5000000000    0.5000000000          0.4195
C180       C    0.5000000000    0.4254557530    0.5000000000          0.4244
C181       C    0.5000000000    0.5000000000    0.4254557530           0.414
C182       C    0.5745442470    0.5000000000    0.5000000000          0.4177
C183       C    0.5000000000    0.5000000000    0.5745442470          0.4291
C184       C    0.5000000000    0.5745442470    0.5000000000          0.4196
C944       C    0.5000000000    0.5000000000   -0.3934142936         -0.3521
C945       C    0.5007685389    0.5239730056   -0.3782577754         -0.3527
C946       C    0.5029882114    0.5241336727   -0.3501859600         -0.3544
C947       C    0.5044182313    0.5009865972   -0.3344339816          0.6445
C948       C    0.5030881123    0.4773097427   -0.3493974554         -0.3545
C949       C    0.5009725293    0.4768256626   -0.3776029446         -0.3528
C950       C    0.5114238164    0.5021850325   -0.3018805471           0.639
H951       H    0.5045902058    0.5442757479   -0.3400328255          0.6444
Br952     Br    0.5010242851    0.5603192787   -0.3937369241         -0.3528
H953       H    0.5003484913    0.4567201597   -0.3879190051         -0.3523
H954       H    0.5045400225    0.4575432860   -0.3384795253          0.6444
C955       C    0.4952925342    0.4870081449   -0.2774535873         -0.3484
C956       C    0.5081870327    0.5002398361   -0.2499971769          0.6416
N957       N    0.5100844361    0.5296199425   -0.2593578033          0.6401
N958       N    0.5135452832    0.5305186460   -0.2899223161          0.6374
C959       C    0.4933869272    0.4984203032   -0.2196434438         -0.3469
H960       H    0.5324395592    0.5394197532   -0.2936488448          0.6227
H961       H    0.4915671231    0.5394682874   -0.2561958752         -0.3455
H962       H    0.4984532646    0.4645368730   -0.2782278899         -0.3509
H963       H    0.5294919467    0.4924887548   -0.2479346069           0.625
H964       H    0.4730298345    0.4914187392   -0.2788578658         -0.3311
H965       H    0.5325193651    0.4937271701   -0.3005501626          0.6226
C966       C    0.5082364107    0.4832005166   -0.1936057823          0.6415
N967       N    0.5009687850    0.4915218824   -0.1631081042         -0.3528
N968       N    0.4960420203    0.5113901796   -0.1735363492          -0.349
N969       N    0.4896599015    0.5110705588   -0.2007873442          -0.344
C970       C    0.5013787710    0.4904743013   -0.1339135233         -0.3532
H971       H    0.5037192931    0.4609270876   -0.1956374337           0.645
H972       H    0.5309567034    0.4848228884   -0.1963161229          0.6238
H973       H    0.4712699546    0.4933647815   -0.2212542186         -0.3297
C974       C    0.5000000000    0.5000000000   -0.1065857064         -0.3521
H975       H    0.4964443126    0.5222086357   -0.1038301202         -0.3493
H976       H    0.5052048691    0.4679074921   -0.1334008726          0.6439
C911       C    0.5000000000    0.5000000000    0.3934142936         -0.3521
C912       C    0.4760269286    0.4992335183    0.3782577754         -0.3527
C913       C    0.4758660709    0.4970138596    0.3501859600         -0.3544
C914       C    0.4990130237    0.4955818534    0.3344339816          0.6445
C915       C    0.5226899923    0.4969099406    0.3493974554         -0.3545
C916       C    0.5231742539    0.4990254820    0.3776029446         -0.3528
C917       C    0.4978139872    0.4885763711    0.3018805471           0.639
H918       H    0.4557238583    0.4954135937    0.3400328255          0.6444
Br919     Br    0.4396806337    0.4989808911    0.3937369241         -0.3528
H920       H    0.5432798102    0.4996477948    0.3879190051         -0.3523
H921       H    0.5424563243    0.4954563341    0.3384795253          0.6444
C922       C    0.5129922590    0.5047063510    0.2774535873         -0.3484
C923       C    0.4997594614    0.4918129879    0.2499971769          0.6416
N924       N    0.4703791923    0.4899181058    0.2593578033          0.6401
N925       N    0.4694801917    0.4864573357    0.2899223161          0.6374
C926       C    0.5015802643    0.5066129372    0.2196434438         -0.3469
H927       H    0.4605774632    0.4675638236    0.2936488448          0.6227
H928       H    0.4605324364    0.5084362637    0.2561958752         -0.3455
H929       H    0.5354632596    0.5015436922    0.2782278899         -0.3509
H930       H    0.5075087144    0.4705074089    0.2479346069           0.625
H931       H    0.5085835752    0.5269694290    0.2788578658         -0.3311
H932       H    0.5062700393    0.4674800967    0.3005501626          0.6226
C933       C    0.5167987765    0.4917621477    0.1936057823          0.6415
N934       N    0.5084780344    0.4990304875    0.1631081042         -0.3528
N935       N    0.4886101600    0.5039589571    0.1735363492          -0.349
N936       N    0.4889303285    0.5103410485    0.2007873442          -0.344
C937       C    0.5095255803    0.4986204116    0.1339135233         -0.3532
H938       H    0.5390725931    0.4962773539    0.1956374337           0.645
H939       H    0.5151744551    0.4690419943    0.1963161229          0.6238
H940       H    0.5066376839    0.5287294759    0.2212542186         -0.3297
C941       C    0.5000000000    0.5000000000    0.1065857064         -0.3521
H942       H    0.4777916695    0.5035575932    0.1038301202         -0.3493
H943       H    0.5320920611    0.4947923770    0.1334008726          0.6439
C878       C    0.5000000000    0.8934142936    0.5000000000         -0.3521
C879       C    0.4992864183    0.8782577754    0.4760252956         -0.3527
C880       C    0.4970671199    0.8501859600    0.4758595406         -0.3544
C881       C    0.4955840419    0.8344339816    0.4990032772          0.6445
C882       C    0.4968598812    0.8493974554    0.5226831186         -0.3545
C883       C    0.4989743489    0.8776029446    0.5231720471         -0.3528
C884       C    0.4885812225    0.8018805471    0.4977887855           0.639
H885       H    0.4955113030    0.8400328255    0.4557138459          0.6444
Br886     Br    0.4991139921    0.8937369241    0.4396785318         -0.3528
H887       H    0.4995522959    0.8879190051    0.5432789277         -0.3523
H888       H    0.4953626626    0.8384795253    0.5424461950          0.6444
C889       C    0.5046776712    0.7774535873    0.5130026123         -0.3484
C890       C    0.4918135386    0.7499971769    0.4997413968          0.6416
N891       N    0.4899834905    0.7593578033    0.4703570180          0.6401
N892       N    0.4865247126    0.7899223161    0.4694503832          0.6374
C893       C    0.5066094341    0.7196434438    0.5015948523         -0.3469
H894       H    0.4676508909    0.7936488448    0.4605059867          0.6227
H895       H    0.5085233309    0.7561958752    0.4605511477         -0.3455
H896       H    0.5014654365    0.7782278899    0.5354665796         -0.3509
H897       H    0.4704909122    0.7479346069    0.5074436188           0.625
H898       H    0.5269504232    0.7788578658    0.5086430640         -0.3311
H899       H    0.4674663406    0.8005501626    0.5061982667          0.6226
C900       C    0.4917251002    0.6936057823    0.5167805583          0.6415
N901       N    0.4990117825    0.6631081042    0.5084758745         -0.3528
N902       N    0.5039840799    0.6735363492    0.4886189235          -0.349
N903       N    0.5103654492    0.7007873442    0.4889531737          -0.344
C904       C    0.4985993962    0.6339135233    0.5095225130         -0.3532
H905       H    0.4961911468    0.6956374337    0.5390642837           0.645
H906       H    0.4690085863    0.6963161229    0.5151061073          0.6238
H907       H    0.5287147595    0.7212542186    0.5067010612         -0.3297
C908       C    0.5000000000    0.6065857064    0.5000000000         -0.3521
H909       H    0.5036065887    0.6038301202    0.4777995736         -0.3493
H910       H    0.4947215765    0.6334008726    0.5320804920          0.6439
C845       C    0.5000000000    1.1065857064    0.5000000000         -0.3521
C846       C    0.5136675317    1.1217422246    0.5197102569         -0.3527
C847       C    0.5119806871    1.1498140400    0.5211619164         -0.3544
C848       C    0.4970396753    1.1655660184    0.5034249992          0.6445
C849       C    0.4839996057    1.1506025446    0.4836179489         -0.3545
C850       C    0.4854101466    1.1223970554    0.4819685856         -0.3528
C851       C    0.4921277186    1.1981194529    0.5085618418           0.639
H852       H    0.5226961585    1.1599671745    0.5382922477          0.6444
Br853     Br    0.5351197049    1.1062630759    0.5490517162         -0.3528
H854       H    0.4739310875    1.1120809949    0.4654503572         -0.3523
H855       H    0.4710554147    1.1615204747    0.4686089925          0.6444
C856       C    0.4960390624    1.2225464127    0.4867614386         -0.3484
C857       C    0.4935680450    1.2500028231    0.5050709940          0.6416
N858       N    0.5095509200    1.2406421967    0.5297962543          0.6401
N859       N    0.5073070811    1.2100776839    0.5325801937          0.6374
C860       C    0.5043695555    1.2803565562    0.4947908582         -0.3469
H861       H    0.4974372915    1.2063511552    0.5509870030          0.6227
H862       H    0.5302901639    1.2438041248    0.5266714284         -0.3455
H863       H    0.4801108360    1.2217721101    0.4705985217         -0.3509
H864       H    0.4718398174    1.2520653931    0.5115411369           0.625
H865       H    0.5165459839    1.2211421342    0.4770378947         -0.3311
H866       H    0.4701464809    1.1994498374    0.5143396269          0.6226
C867       C    0.4833752156    1.3063942177    0.4914164315          0.6415
N868       N    0.4941701516    1.3368918958    0.4937686366         -0.3528
N869       N    0.5099656222    1.3264636508    0.5067888269          -0.349
N870       N    0.5149005407    1.2992126558    0.5027292485          -0.344
C871       C    0.4932166795    1.3660864767    0.4931716394         -0.3532
H872       H    0.4737308254    1.3043625663    0.4708374197           0.645
H873       H    0.4660956567    1.3036838771    0.5062576118          0.6238
H874       H    0.5191188964    1.2787457814    0.4775520728         -0.3297
C875       C    0.5000000000    1.3934142936    0.5000000000         -0.3521
H876       H    0.5160889132    1.3961698798    0.5157166562         -0.3493
H877       H    0.4766971802    1.3665991274    0.4773284691          0.6439
C812       C    0.5000000000    0.8934142936    0.0000000000         -0.3521
C813       C    0.4793119128    0.8782577754   -0.0121366675         -0.3527
C814       C    0.4779920765    0.8501859600   -0.0103447992         -0.3544
C815       C    0.4968088599    0.8344339816    0.0032110382          0.6445
C816       C    0.5175459767    0.8493974554    0.0147147177         -0.3545
C817       C    0.5190838605    0.8776029446    0.0131833986         -0.3528
C818       C    0.4920584847    0.8018805471    0.0084976635           0.639
H819       H    0.4600999274    0.8400328255   -0.0197331206          0.6444
Br820     Br    0.4484311038    0.8937369241   -0.0313067641         -0.3528
H821       H    0.5364234502    0.8879190051    0.0233794417         -0.3523
H822       H    0.5334915036    0.8384795253    0.0264859124          0.6444
C823       C    0.5135003584    0.7774535873    0.0029476868         -0.3484
C824       C    0.4954303178    0.7499971769    0.0067972810          0.6416
N825       N    0.4695663846    0.7593578033   -0.0072685553          0.6401
N826       N    0.4669602424    0.7899223161   -0.0048204635          0.6374
C827       C    0.5048635158    0.7196434438   -0.0047512511         -0.3469
H828       H    0.4493531642    0.7936488448    0.0064140447          0.6227
H829       H    0.4711127075    0.7561958752   -0.0281848089         -0.3455
H830       H    0.5308223676    0.7782278899    0.0176070277         -0.3509
H831       H    0.4906231178    0.7479346069    0.0289528548           0.625
H832       H    0.5216440574    0.7788578658   -0.0182363002         -0.3311
H833       H    0.4879608047    0.8005501626    0.0308531243          0.6226
C834       C    0.5098171124    0.6936057823    0.0159275047          0.6415
N835       N    0.5066546946    0.6631081042    0.0053415411         -0.3528
N836       N    0.4924764461    0.6735363492   -0.0094232655          -0.349
N837       N    0.4961509088    0.7007873442   -0.0146512596          -0.344
C838       C    0.5073221383    0.6339135233    0.0062470982         -0.3532
H839       H    0.5310669927    0.6956374337    0.0239868212           0.645
H840       H    0.4963262075    0.6963161229    0.0342806863          0.6238
H841       H    0.5209366363    0.7212542186   -0.0207629211         -0.3297
C842       C    0.5000000000    0.6065857064    0.0000000000         -0.3521
H843       H    0.4831108109    0.6038301202   -0.0148533398         -0.3493
H844       H    0.5243700654    0.6334008726    0.0215202146          0.6439
C779       C    0.5000000000    1.1065857064    0.0000000000         -0.3521
C780       C    0.4760146790    1.1217422246    0.0000051526         -0.3527
C781       C    0.4757824960    1.1498140400   -0.0022081822         -0.3544
C782       C    0.4988713984    1.1655660184   -0.0043841077          0.6445
C783       C    0.5225788372    1.1506025446   -0.0038184195         -0.3545
C784       C    0.5231309072    1.1223970554   -0.0017195523         -0.3528
C785       C    0.4974476092    1.1981194529   -0.0113473896           0.639
H786       H    0.4555992273    1.1599671745   -0.0031596248          0.6444
Br787     Br    0.4396790705    1.1062630759    0.0009219525         -0.3528
H788       H    0.5432460769    1.1120809949   -0.0017443774         -0.3523
H789       H    0.5422881738    1.1615204747   -0.0059071761          0.6444
C790       C    0.5131369420    1.2225464127    0.0042859410         -0.3484
C791       C    0.4994962016    1.2500028231   -0.0081750359          0.6416
N792       N    0.4700701800    1.2406421967   -0.0091237448          0.6401
N793       N    0.4690603084    1.2100776839   -0.0125538017          0.6374
C794       C    0.5017921911    1.2803565562    0.0065586755         -0.3469
H795       H    0.4595543651    1.2063511552   -0.0311511246          0.6227
H796       H    0.4608242686    1.2438041248    0.0097016077         -0.3455
H797       H    0.5354945652    1.2217721101    0.0004020048         -0.3509
H798       H    0.5065560218    1.2520653931   -0.0297188879           0.625
H799       H    0.5094467655    1.2211421342    0.0266793270         -0.3311
H800       H    0.5052205961    1.1994498374   -0.0327047837          0.6226
C801       C    0.5165250612    1.3063942177   -0.0087740216          0.6415
N802       N    0.5084424558    1.3368918958   -0.0012417575         -0.3528
N803       N    0.4887434192    1.3264636508    0.0043233303          -0.349
N804       N    0.4892687402    1.2992126558    0.0106918181          -0.344
C805       C    0.5094762669    1.3660864767   -0.0016853217         -0.3532
H806       H    0.5389326071    1.3043625663   -0.0049777233           0.645
H807       H    0.5141706506    1.3036838771   -0.0314301585          0.6238
H808       H    0.5075585039    1.2787457814    0.0285010641         -0.3297
C809       C    0.5000000000    1.3934142936    0.0000000000         -0.3521
H810       H    0.4779176163    1.3961698798    0.0042702158         -0.3493
H811       H    0.5319079152    1.3665991274   -0.0062373609          0.6439
C746       C    0.5000000000    1.0000000000   -0.1065857064         -0.3521
C747       C    0.4992350912    1.0239731217   -0.1217422246         -0.3527
C748       C    0.4970154430    1.0241341249   -0.1498140400         -0.3544
C749       C    0.4955819181    1.0009872662   -0.1655660184          0.6445
C750       C    0.4969084520    0.9773102105   -0.1506025446         -0.3545
C751       C    0.4990239616    0.9768258101   -0.1223970554         -0.3528
C752       C    0.4885765146    1.0021867623   -0.1981194529           0.639
H753       H    0.4954164986    1.0442764425   -0.1599671745          0.6444
Br754     Br    0.4989848486    1.0603194331   -0.1062630759         -0.3528
H755       H    0.4996449552    0.9567202130   -0.1120809949         -0.3523
H756       H    0.4954535486    0.9575439739   -0.1615204747          0.6444
C757       C    0.5047054985    0.9870074322   -0.2225464127         -0.3484
C758       C    0.4918130037    1.0002410758   -0.2500028231          0.6416
N759       N    0.4899200492    1.0296214691   -0.2406421967          0.6401
N760       N    0.4864593382    1.0305206968   -0.2100776839          0.6374
C761       C    0.5066128335    0.9984193019   -0.2803565562         -0.3469
H762       H    0.4675664102    1.0394246648   -0.2063511552          0.6227
H763       H    0.5084388532    1.0394670100   -0.2438041248         -0.3455
H764       H    0.5015413654    0.9645366392   -0.2217721101         -0.3509
H765       H    0.4705069163    0.9924932206   -0.2520653931           0.625
H766       H    0.5269688658    0.9914146554   -0.2211421342         -0.3311
H767       H    0.4674796854    0.9937320944   -0.1994498374          0.6226
C768       C    0.4917610455    0.9832017640   -0.3063942177          0.6415
N769       N    0.4990299312    0.9915220292   -0.3368918958         -0.3528
N770       N    0.5039597044    1.0113895802   -0.3264636508          -0.349
N771       N    0.5103417747    1.0110689930   -0.2992126558          -0.344
C772       C    0.4986197866    0.9904745102   -0.3660864767         -0.3532
H773       H    0.4962747904    0.9609276512   -0.3043625663           0.645
H774       H    0.4690409988    0.9848275761   -0.3036838771          0.6238
H775       H    0.5287290403    0.9933604312   -0.2787457814         -0.3297
C776       C    0.5000000000    1.0000000000   -0.3934142936         -0.3521
H777       H    0.5035590503    1.0222080970   -0.3961698798         -0.3493
H778       H    0.4947902715    0.9679082806   -0.3665991274          0.6439
C713       C    0.5000000000    1.0000000000    0.1065857064         -0.3521
C714       C    0.4992490829    0.9760264360    0.1217422246         -0.3527
C715       C    0.4970295291    0.9758641373    0.1498140400         -0.3544
C716       C    0.4955824951    0.9990101554    0.1655660184          0.6445
C717       C    0.4968952099    1.0226879813    0.1506025446         -0.3545
C718       C    0.4990104364    1.0231736163    0.1223970554         -0.3528
C719       C    0.4885777928    0.9978065709    0.1981194529           0.639
H720       H    0.4954423408    0.9557208900    0.1599671745          0.6444
Br721     Br    0.4990200535    0.9396799847    0.1062630759         -0.3528
H722       H    0.4996196955    1.0432795724    0.1120809949         -0.3523
H723       H    0.4954287704    1.0424533654    0.1615204747          0.6444
C724       C    0.5046979148    1.0129953119    0.2225464127         -0.3484
C725       C    0.4918131458    0.9997541460    0.2500028231          0.6416
N726       N    0.4899373391    0.9703726529    0.2406421967          0.6401
N727       N    0.4864771535    0.9694714056    0.2100776839          0.6374
C728       C    0.5066119098    1.0015845574    0.2803565562         -0.3469
H729       H    0.4675894255    0.9605564124    0.2063511552          0.6227
H730       H    0.5084618862    0.9605379220    0.2438041248         -0.3455
H731       H    0.5015206674    1.0354642544    0.2217721101         -0.3509
H732       H    0.4705025401    1.0074895648    0.2520653931           0.625
H733       H    0.5269638505    1.0086010832    0.2211421342         -0.3311
H734       H    0.4674760327    1.0062489245    0.1994498374          0.6226
C735       C    0.4917512429    1.0167934246    0.3063942177          0.6415
N736       N    0.4990249833    1.0084774032    0.3368918958         -0.3528
N737       N    0.5039663511    0.9886127328    0.3264636508          -0.349
N738       N    0.5103482333    0.9889370448    0.2992126558          -0.344
C739       C    0.4986142274    1.0095246826    0.3660864767         -0.3532
H740       H    0.4962519869    1.0390701679    0.3043625663           0.645
H741       H    0.4690321488    1.0151543524    0.3036838771          0.6238
H742       H    0.5287251603    1.0066563351    0.2787457814         -0.3297
C743       C    0.5000000000    1.0000000000    0.3934142936         -0.3521
H744       H    0.5035720112    0.9777939840    0.3961698798         -0.3493
H745       H    0.4947715424    1.0320886733    0.3665991274          0.6439
C680       C    0.6065857064    0.5000000000    0.5000000000         -0.3521
C681       C    0.6217422246    0.4789009709    0.5114073055         -0.3527
C682       C    0.6498140400    0.4797498213    0.5134645398         -0.3544
C683       C    0.6655660184    0.5010932142    0.5043930655          0.6445
C684       C    0.6506025446    0.5216762316    0.4926158821         -0.3545
C685       C    0.6223970554    0.5211632036    0.4905071320         -0.3528
C686       C    0.6981194529    0.5031539230    0.5111951203           0.639
H687       H    0.6599671745    0.4624500659    0.5239042736          0.6444
Br688     Br    0.6062630759    0.4465053503    0.5278888327         -0.3528
H689       H    0.6120809949    0.5388675545    0.4809584867         -0.3523
H690       H    0.6615204747    0.5400056132    0.4850756815          0.6444
C691       C    0.7225464127    0.5095155722    0.4899798992         -0.3484
C692       C    0.7500028231    0.5034464312    0.5074301505          0.6416
N693       N    0.7406421967    0.4780158007    0.5222650359          0.6401
N694       N    0.7100776839    0.4787595230    0.5257624647          0.6374
C695       C    0.7803565562    0.4984558288    0.4933785418         -0.3469
H696       H    0.7063511552    0.4792467691    0.5466427417          0.6227
H697       H    0.7438041248    0.4609266422    0.5101060295         -0.3455
H698       H    0.7217721101    0.5310284043    0.4827586573         -0.3509
H699       H    0.7520653931    0.5199062061    0.5230203536           0.625
H700       H    0.7211421342    0.4956154131    0.4720392550         -0.3311
H701       H    0.6994498374    0.5201522586    0.5262820086          0.6226
C702       C    0.8063942177    0.5187093575    0.4998549326          0.6415
N703       N    0.8368918958    0.5080164722    0.4970754154         -0.3528
N704       N    0.8264636508    0.4880421666    0.5015530664          -0.349
N705       N    0.7992126558    0.4854741929    0.4957016470          -0.344
C706       C    0.8660864767    0.5091368141    0.4969736866         -0.3532
H707       H    0.8043625663    0.5366119652    0.4858546958           0.645
H708       H    0.8036838771    0.5274179401    0.5209026019          0.6238
H709       H    0.7787457814    0.4930878162    0.4713353293         -0.3297
C710       C    0.8934142936    0.5000000000    0.5000000000         -0.3521
H711       H    0.8961698798    0.4785454724    0.5067505303         -0.3493
H712       H    0.8665991274    0.5310326286    0.4903048629          0.6439
C647       C    1.3934142936    0.5000000000    0.5000000000         -0.3521
C648       C    1.3782577754    0.4782170246    0.5100398023         -0.3527
C649       C    1.3501859600    0.4770801116    0.5081266403         -0.3544
C650       C    1.3344339816    0.4971406765    0.4964902406          0.6445
C651       C    1.3493974554    0.5189100919    0.4870851775         -0.3545
C652       C    1.3776029446    0.5202896568    0.4887605358         -0.3528
C653       C    1.3018805471    0.4929341529    0.4907613987           0.639
H654       H    1.3400328255    0.4583501976    0.5157068711          0.6444
Br655     Br    1.3937369241    0.4455980823    0.5260748133         -0.3528
H656       H    1.3879190051    0.5385492618    0.4803220826         -0.3523
H657       H    1.3384795253    0.5359375711    0.4769419135          0.6444
C658       C    1.2774535873    0.5137250590    0.4983964762         -0.3484
C659       C    1.2499971769    0.4961220948    0.4927856479          0.6416
N660       N    1.2593578033    0.4689984157    0.5042354000          0.6401
N661       N    1.2899223161    0.4666460925    0.5015425007          0.6374
C662       C    1.2196434438    0.5043718501    0.5052072161         -0.3469
H663       H    1.2936488448    0.4502312764    0.4886282764          0.6227
H664       H    1.2561958752    0.4684769019    0.5252022500         -0.3455
H665       H    1.2782278899    0.5324068179    0.4855146997         -0.3509
H666       H    1.2479346069    0.4935206669    0.4702642981           0.625
H667       H    1.2788578658    0.5197424640    0.5202796198         -0.3311
H668       H    1.3005501626    0.4910584839    0.4681110240          0.6226
C669       C    1.1936057823    0.5113382784    0.4851169712          0.6415
N670       N    1.1631081042    0.5071484897    0.4953399445         -0.3528
N671       N    1.1735363492    0.4915848139    0.5086363441          -0.349
N672       N    1.2007873442    0.4947264329    0.5142008591          -0.344
C673       C    1.1339135233    0.5079018876    0.4945045366         -0.3532
H674       H    1.1956374337    0.5332786829    0.4791900291           0.645
H675       H    1.1963161229    0.4997208291    0.4655241495          0.6238
H676       H    1.2212542186    0.5187896032    0.5227242699         -0.3297
C677       C    1.1065857064    0.5000000000    0.5000000000         -0.3521
H678       H    1.1038301202    0.4817298468    0.5131174661         -0.3493
H679       H    1.1334008726    0.5263713560    0.4809849716          0.6439
C614       C    0.8934142936    0.5000000000    0.0000000000         -0.3521
C615       C    0.8782577754    0.5156905746   -0.0181411553         -0.3527
C616       C    0.8501859600    0.5175162319   -0.0168684672         -0.3544
C617       C    0.8344339816    0.5040537628    0.0020152292          0.6445
C618       C    0.8493974554    0.4881133449    0.0195727271         -0.3545
C619       C    0.8776029446    0.4861649346    0.0186168390         -0.3528
C620       C    0.8018805471    0.5102510583    0.0054948843           0.639
H621       H    0.8400328255    0.5314423656   -0.0315085622          0.6444
Br622     Br    0.8937369241    0.5387730022   -0.0462181657         -0.3528
H623       H    0.8879190051    0.4730216177    0.0338442448         -0.3523
H624       H    0.8384795253    0.4767963317    0.0358437463          0.6444
C625       C    0.7774535873    0.4881629758    0.0071297540         -0.3484
C626       C    0.7499971769    0.5065116445    0.0049682503          0.6416
N627       N    0.7593578033    0.5264835815   -0.0166630356          0.6401
N628       N    0.7899223161    0.5297381984   -0.0151822926          0.6374
C629       C    0.7196434438    0.4938676105   -0.0029363196         -0.3469
H630       H    0.7936488448    0.5500216449   -0.0102018131          0.6227
H631       H    0.7561958752    0.5182977212   -0.0359729415         -0.3455
H632       H    0.7782278899    0.4764706129    0.0265780683         -0.3509
H633       H    0.7479346069    0.5181836830    0.0244038398           0.625
H634       H    0.7788578658    0.4736436359   -0.0103135803         -0.3311
H635       H    0.8005501626    0.5213154455    0.0253477669          0.6226
C636       C    0.6936057823    0.4958219951    0.0182374718          0.6415
N637       N    0.6631081042    0.4954148144    0.0071967419         -0.3528
N638       N    0.6735363492    0.5040962741   -0.0113411787          -0.349
N639       N    0.7007873442    0.4989366646   -0.0151110631          -0.344
C640       C    0.6339135233    0.4950737788    0.0082687538         -0.3532
H641       H    0.6956374337    0.4782891459    0.0326980801           0.645
H642       H    0.6963161229    0.5144952221    0.0312817956          0.6238
H643       H    0.7212542186    0.4735015904   -0.0129335194         -0.3297
C644       C    0.6065857064    0.5000000000    0.0000000000         -0.3521
H645       H    0.6038301202    0.5112201575   -0.0194929341         -0.3493
H646       H    0.6334008726    0.4838382006    0.0282102103          0.6439
C581       C    1.3934142936    0.5000000000    0.0000000000         -0.3521
C582       C    1.3782577754    0.4839193423    0.0177962945         -0.3527
C583       C    1.3501859600    0.4821217407    0.0164842777         -0.3544
C584       C    1.3344339816    0.4959909357   -0.0021027472          0.6445
C585       C    1.3493974554    0.5123087088   -0.0193100985         -0.3545
C586       C    1.3776029446    0.5142359111   -0.0183121426         -0.3528
C587       C    1.3018805471    0.4898706314   -0.0057161037           0.639
H588       H    1.3400328255    0.4678811038    0.0308186364          0.6444
Br589     Br    1.3937369241    0.4602329012    0.0453656521         -0.3528
H590       H    1.3879190051    0.5277066640   -0.0332506660         -0.3523
H591       H    1.3384795253    0.5239762416   -0.0353316319          0.6444
C592       C    1.2774535873    0.5119889969   -0.0068711344         -0.3484
C593       C    1.2499971769    0.4935977327   -0.0051084243          0.6416
N594       N    1.2593578033    0.4731609631    0.0160842452          0.6401
N595       N    1.2899223161    0.4699392547    0.0145332049          0.6374
C596       C    1.2196434438    0.5060672075    0.0030687402         -0.3469
H597       H    1.2936488448    0.4497686958    0.0091136174          0.6227
H598       H    1.2561958752    0.4809257453    0.0355672873         -0.3455
H599       H    1.2782278899    0.5241007586   -0.0260610668         -0.3509
H600       H    1.2479346069    0.4823503219   -0.0247927930           0.625
H601       H    1.2788578658    0.5261262830    0.0108832532         -0.3311
H602       H    1.3005501626    0.4792397865   -0.0258044771          0.6226
C603       C    1.1936057823    0.5045728911   -0.0181424852          0.6415
N604       N    1.1631081042    0.5047403210   -0.0070955182         -0.3528
N605       N    1.1735363492    0.4956585144    0.0112495910          -0.349
N606       N    1.2007873442    0.5007350774    0.0151305840          -0.344
C607       C    1.1339135233    0.5051045457   -0.0081598748         -0.3532
H608       H    1.1956374337    0.5224154978   -0.0322191105           0.645
H609       H    1.1963161229    0.4861872097   -0.0315890650          0.6238
H610       H    1.2212542186    0.5262114255    0.0135056583         -0.3297
C611       C    1.1065857064    0.5000000000    0.0000000000         -0.3521
H612       H    1.1038301202    0.4883593638    0.0192447916         -0.3493
H613       H    1.1334008726    0.5167703348   -0.0278527484          0.6439
C548       C    1.0000000000    0.5000000000   -0.1065857064         -0.3521
C549       C    0.9760269434    0.4992330531   -0.1217422246         -0.3527
C550       C    0.9758661289    0.4970133912   -0.1498140400         -0.3544
C551       C    0.9990131094    0.4955818342   -0.1655660184          0.6445
C552       C    1.0226900522    0.4969103810   -0.1506025446         -0.3545
C553       C    1.0231742728    0.4990259318   -0.1223970554         -0.3528
C554       C    0.9978142089    0.4885763287   -0.1981194529           0.639
H555       H    0.9557239474    0.4954127344   -0.1599671745          0.6444
Br556     Br    0.9396806535    0.4989797205   -0.1062630759         -0.3528
H557       H    1.0432798170    0.4996486347   -0.1120809949         -0.3523
H558       H    1.0424564124    0.4954571581   -0.1615204747          0.6444
C559       C    1.0129921677    0.5047066031   -0.2225464127         -0.3484
C560       C    0.9997596203    0.4918129833   -0.2500028231          0.6416
N561       N    0.9703793879    0.4899175309   -0.2406421967          0.6401
N562       N    0.9694804545    0.4864567435   -0.2100776839          0.6374
C563       C    1.0015801359    0.5066129679   -0.2803565562         -0.3469
H564       H    0.9605780927    0.4675630586   -0.2063511552          0.6227
H565       H    0.9605322727    0.5084354978   -0.2438041248         -0.3455
H566       H    1.0354632297    0.5015443804   -0.2217721101         -0.3509
H567       H    1.0075092867    0.4705075546   -0.2520653931           0.625
H568       H    1.0085830518    0.5269695956   -0.2211421342         -0.3311
H569       H    1.0062706704    0.4674802184   -0.1994498374          0.6226
C570       C    1.0167989364    0.4917624737   -0.3063942177          0.6415
N571       N    1.0084780532    0.4990306520   -0.3368918958         -0.3528
N572       N    0.9886100832    0.5039587361   -0.3264636508          -0.349
N573       N    0.9889301279    0.5103408337   -0.2992126558          -0.344
C574       C    1.0095256071    0.4986205965   -0.3660864767         -0.3532
H575       H    1.0390726653    0.4962781122   -0.3043625663           0.645
H576       H    1.0151750558    0.4690422888   -0.3036838771          0.6238
H577       H    1.0066371264    0.5287296047   -0.2787457814         -0.3297
C578       C    1.0000000000    0.5000000000   -0.3934142936         -0.3521
H579       H    0.9777916005    0.5035571622   -0.3961698798         -0.3493
H580       H    1.0320921622    0.4947929998   -0.3665991274          0.6439
C515       C    1.0000000000    0.5000000000    0.1065857064         -0.3521
C516       C    1.0239730714    0.4992335183    0.1217422246         -0.3527
C517       C    1.0241339291    0.4970138596    0.1498140400         -0.3544
C518       C    1.0009869763    0.4955818534    0.1655660184          0.6445
C519       C    0.9773100077    0.4969099406    0.1506025446         -0.3545
C520       C    0.9768257461    0.4990254820    0.1223970554         -0.3528
C521       C    1.0021860128    0.4885763711    0.1981194529           0.639
H522       H    1.0442761417    0.4954135937    0.1599671745          0.6444
Br523     Br    1.0603193663    0.4989808911    0.1062630759         -0.3528
H524       H    0.9567201898    0.4996477948    0.1120809949         -0.3523
H525       H    0.9575436757    0.4954563341    0.1615204747          0.6444
C526       C    0.9870077410    0.5047063510    0.2225464127         -0.3484
C527       C    1.0002405386    0.4918129879    0.2500028231          0.6416
N528       N    1.0296208077    0.4899181058    0.2406421967          0.6401
N529       N    1.0305198083    0.4864573357    0.2100776839          0.6374
C530       C    0.9984197357    0.5066129372    0.2803565562         -0.3469
H531       H    1.0394225368    0.4675638236    0.2063511552          0.6227
H532       H    1.0394675636    0.5084362637    0.2438041248         -0.3455
H533       H    0.9645367404    0.5015436922    0.2217721101         -0.3509
H534       H    0.9924912856    0.4705074089    0.2520653931           0.625
H535       H    0.9914164248    0.5269694290    0.2211421342         -0.3311
H536       H    0.9937299607    0.4674800967    0.1994498374          0.6226
C537       C    0.9832012235    0.4917621477    0.3063942177          0.6415
N538       N    0.9915219656    0.4990304875    0.3368918958         -0.3528
N539       N    1.0113898400    0.5039589571    0.3264636508          -0.349
N540       N    1.0110696715    0.5103410485    0.2992126558          -0.344
C541       C    0.9904744197    0.4986204116    0.3660864767         -0.3532
H542       H    0.9609274069    0.4962773539    0.3043625663           0.645
H543       H    0.9848255449    0.4690419943    0.3036838771          0.6238
H544       H    0.9933623161    0.5287294759    0.2787457814         -0.3297
C545       C    1.0000000000    0.5000000000    0.3934142936         -0.3521
H546       H    1.0222083305    0.5035575932    0.3961698798         -0.3493
H547       H    0.9679079389    0.4947923770    0.3665991274          0.6439
C482       C    1.0000000000   -0.1065857064    0.5000000000         -0.3521
C483       C    1.0007435681   -0.1217422246    0.5239737931         -0.3527
C484       C    1.0029630721   -0.1498140400    0.5241367722         -0.3544
C485       C    1.0044172013   -0.1655660184    0.5009911987          0.6445
C486       C    1.0031117448   -0.1506025446    0.4773129716         -0.3545
C487       C    1.0009966672   -0.1223970554    0.4768266881         -0.3528
C488       C    1.0114215343   -0.1981194529    0.5021969304           0.639
H489       H    1.0045440855   -0.1599671745    0.5442805051          0.6444
Br490     Br    1.0009614558   -0.1062630759    0.5603203128         -0.3528
H491       H    1.0003935715   -0.1120809949    0.4567205462         -0.3555
H492       H    1.0045842431   -0.1615204747    0.4575480379          0.6444
C493       C    0.9953060691   -0.2225464127    0.4870032486         -0.3484
C494       C    1.0081867784   -0.2500028231    0.5002483636          0.6416
N495       N    1.0100535784   -0.2406421967    0.5296304304          0.6401
N496       N    1.0135134875   -0.2100776839    0.5305327383          0.6374
C497       C    0.9933885762   -0.2803565562    0.4984134159         -0.3469
H498       H    1.0323984819   -0.2063511552    0.5394535209          0.6227
H499       H    0.9915260174   -0.2438041248    0.5394594822         -0.3455
H500       H    0.9984902039   -0.2217721101    0.4645352811         -0.3509
H501       H    1.0294997544   -0.2520653931    0.4925194778           0.625
H502       H    0.9730387874   -0.2211421342    0.4913906517         -0.3311
H503       H    1.0325258813   -0.1994498374    0.4937610458          0.6226
C504       C    1.0082539046   -0.3063942177    0.4832091048          0.6415
N505       N    1.0009776153   -0.3368918958    0.4915228961         -0.3528
N506       N    0.9960301584   -0.3264636508    0.5113860508          -0.349
N507       N    0.9896483760   -0.2992126558    0.5110597825          -0.344
C508       C    1.0013886922   -0.3660864767    0.4904757426         -0.3532
H509       H    1.0037599895   -0.3043625663    0.4609309828           0.645
H510       H    1.0309724952   -0.3036838771    0.4848551412          0.6238
H511       H    0.9712768815   -0.2787457814    0.4933348598         -0.3297
C512       C    1.0000000000   -0.3934142936    0.5000000000         -0.3521
H513       H    0.9964211819   -0.3961698798    0.5222049200         -0.3493
H514       H    1.0052382939   -0.3665991274    0.4679129309          0.6439
C449       C    1.0000000000    0.1065857064    0.5000000000         -0.3521
C450       C    1.0007435681    0.1217422246    0.4760262069         -0.3527
C451       C    1.0029630721    0.1498140400    0.4758632278         -0.3544
C452       C    1.0044172013    0.1655660184    0.4990088013          0.6445
C453       C    1.0031117448    0.1506025446    0.5226870284         -0.3545
C454       C    1.0009966672    0.1223970554    0.5231733119         -0.3528
C455       C    1.0114215343    0.1981194529    0.4978030696           0.639
H456       H    1.0045440855    0.1599671745    0.4557194949          0.6444
Br457     Br    1.0009614558    0.1062630759    0.4396796872         -0.3528
H458       H    1.0003935715    0.1120809949    0.5432794538         -0.3523
H459       H    1.0045842431    0.1615204747    0.5424519621          0.6444
C460       C    0.9953060691    0.2225464127    0.5129967514         -0.3484
C461       C    1.0081867784    0.2500028231    0.4997516364          0.6416
N462       N    1.0100535784    0.2406421967    0.4703695696          0.6401
N463       N    1.0135134875    0.2100776839    0.4694672617          0.6374
C464       C    0.9933885762    0.2803565562    0.5015865841         -0.3469
H465       H    1.0323984819    0.2063511552    0.4605464791          0.6227
H466       H    0.9915260174    0.2438041248    0.4605405178         -0.3455
H467       H    0.9984902039    0.2217721101    0.5354647189         -0.3509
H468       H    1.0294997544    0.2520653931    0.5074805222           0.625
H469       H    0.9730387874    0.2211421342    0.5086093483         -0.3311
H470       H    1.0325258813    0.1994498374    0.5062389542          0.6226
C471       C    1.0082539046    0.3063942177    0.5167908952          0.6415
N472       N    1.0009776153    0.3368918958    0.5084771039         -0.3528
N473       N    0.9960301584    0.3264636508    0.4886139492          -0.349
N474       N    0.9896483760    0.2992126558    0.4889402175          -0.344
C475       C    1.0013886922    0.3660864767    0.5095242574         -0.3532
H476       H    1.0037599895    0.3043625663    0.5390690172           0.645
H477       H    1.0309724952    0.3036838771    0.5151448588          0.6238
H478       H    0.9712768815    0.2787457814    0.5066651402         -0.3297
C479       C    1.0000000000    0.3934142936    0.5000000000         -0.3521
H480       H    0.9964211819    0.3961698798    0.4777950800         -0.3493
H481       H    1.0052382939    0.3665991274    0.5320870691          0.6439
C416       C    0.6065857064   -0.0000000000    0.5000000000         -0.3521
C417       C    0.6217422246   -0.0239352535    0.4984510363         -0.3527
C418       C    0.6498140400   -0.0243094169    0.5006448370         -0.3544
C419       C    0.6655660184   -0.0014084456    0.5043023741          0.6445
C420       C    0.6506025446    0.0222862442    0.5052637947         -0.3545
C421       C    0.6223970554    0.0229722636    0.5032048139         -0.3528
C422       C    0.6981194529   -0.0032774760    0.5111595744           0.639
H423       H    0.6599671745   -0.0445120736    0.5002952051          0.6444
Br424     Br    0.6062630759   -0.0601365067    0.4951973859         -0.3528
H425       H    0.6120809949    0.0430441247    0.5045243060         -0.3523
H426       H    0.6615204747    0.0418202682    0.5086168170          0.6444
C427       C    0.7225464127    0.0133855671    0.4965685092         -0.3484
C428       C    0.7500028231   -0.0010289422    0.5081256571          0.6416
N429       N    0.7406421967   -0.0304550100    0.5071783848          0.6401
N430       N    0.7100776839   -0.0316835641    0.5105363284          0.6374
C431       C    0.7803565562    0.0022106257    0.4935702794         -0.3469
H432       H    0.7063511552   -0.0423668178    0.5284832353          0.6227
H433       H    0.7438041248   -0.0384700501    0.4877969527         -0.3455
H434       H    0.7217721101    0.0354468391    0.5018834463         -0.3509
H435       H    0.7520653931    0.0046295628    0.5300792432           0.625
H436       H    0.7211421342    0.0111443989    0.4739840388         -0.3311
H437       H    0.6994498374    0.0031047183    0.5329729924          0.6226
C438       C    0.8063942177    0.0159260526    0.5098194679          0.6415
N439       N    0.8368918958    0.0083450235    0.5017825836         -0.3528
N440       N    0.8264636508   -0.0109549668    0.4949611016          -0.349
N441       N    0.7992126558   -0.0100208257    0.4886396319          -0.344
C442       C    0.8660864767    0.0093481408    0.5022917695         -0.3532
H443       H    0.8043625663    0.0385314841    0.5074733095           0.645
H444       H    0.8036838771    0.0121182556    0.5322770829          0.6238
H445       H    0.7787457814    0.0093773095    0.4720445408         -0.3297
C446       C    0.8934142936   -0.0000000000    0.5000000000         -0.3521
H447       H    0.8961698798   -0.0217617402    0.4943173002         -0.3493
H448       H    0.8665991274    0.0314402817    0.5082781889          0.6439
C383       C    1.1065857064   -0.0000000000    0.5000000000         -0.3521
C384       C    1.1217422246    0.0239372587    0.4984823385         -0.3527
C385       C    1.1498140400    0.0240284509    0.4962587280         -0.3544
C386       C    1.1655660184    0.0008479821    0.4955530833          0.6445
C387       C    1.1506025446   -0.0227757128    0.4976227915         -0.3545
C388       C    1.1223970554   -0.0231934141    0.4997524746         -0.3528
C389       C    1.1981194529    0.0018268072    0.4885134546           0.639
H390       H    1.1599671745    0.0441105945    0.4940277897          0.6444
Br391     Br    1.1062630759    0.0602577683    0.4970903780         -0.3528
H392       H    1.1120809949   -0.0432695784    0.5010047913         -0.3523
H393       H    1.1615204747   -0.0425778997    0.4967895746          0.6444
C394       C    1.2225464127   -0.0128383287    0.5051113454         -0.3484
C395       C    1.2500028231   -0.0000162427    0.4918094712          0.6416
N396       N    1.2406421967    0.0292901804    0.4889944481          0.6401
N397       N    1.2100776839    0.0300802439    0.4855071955          0.6374
C398       C    1.2803565562   -0.0013721717    0.5066592281         -0.3469
H399       H    1.2063511552    0.0383862842    0.4663438693          0.6227
H400       H    1.2438041248    0.0397126411    0.5071948077         -0.3455
H401       H    1.2217721101   -0.0353974335    0.5026547077         -0.3509
H402       H    1.2520653931   -0.0084296172    0.4707573039           0.625
H403       H    1.2211421342   -0.0077338636    0.5272252680         -0.3311
H404       H    1.1994498374   -0.0072864573    0.4676926472          0.6226
C405       C    1.3063942177   -0.0170487763    0.4922928390          0.6415
N406       N    1.3368918958   -0.0085042614    0.4992967507         -0.3528
N407       N    1.3264636508    0.0115083549    0.5035999393          -0.349
N408       N    1.2992126558    0.0113884225    0.5099889310          -0.344
C409       C    1.3660864767   -0.0095641483    0.4989197169         -0.3532
H410       H    1.3043625663   -0.0391700927    0.4975041107           0.645
H411       H    1.3036838771   -0.0161375307    0.4695329308          0.6238
H412       H    1.2787457814   -0.0057337513    0.5289234460         -0.3297
C413       C    1.3934142936   -0.0000000000    0.5000000000         -0.3521
H414       H    1.3961698798    0.0223089450    0.5028596127         -0.3493
H415       H    1.3665991274   -0.0322395460    0.4958010238          0.6439
C350       C   -0.0000000000   -0.3934142936    0.0000000000         -0.3521
C351       C    0.0105044443   -0.3782577754    0.0215627526         -0.3527
C352       C    0.0086160933   -0.3501859600    0.0227404156         -0.3544
C353       C   -0.0034476593   -0.3344339816    0.0029339031          0.6445
C354       C   -0.0133172195   -0.3493974554   -0.0186288990         -0.3545
C355       C   -0.0116718192   -0.3776029446   -0.0200440606         -0.3528
C356       C   -0.0090850119   -0.3018805471    0.0072622660           0.639
H357       H    0.0165960846   -0.3400328255    0.0413035328          0.6444
Br358     Br    0.0272350040   -0.3937369241    0.0538304662         -0.3528
H359       H   -0.0204997539   -0.3879190051   -0.0381185796         -0.3523
H360       H   -0.0238231609   -0.3384795253   -0.0354350303          0.6444
C361       C   -0.0018973715   -0.2774535873   -0.0136875314         -0.3484
C362       C   -0.0071295660   -0.2499971769    0.0040316640          0.6416
N363       N    0.0048989897   -0.2593578033    0.0309036688          0.6401
N364       N    0.0022571346   -0.2899223161    0.0333131775          0.6374
C365       C    0.0051123028   -0.2196434438   -0.0044824696         -0.3469
H366       H   -0.0103022472   -0.2936488448    0.0500010565          0.6227
H367       H    0.0258722012   -0.2561958752    0.0309756085         -0.3455
H368       H   -0.0151766580   -0.2782278899   -0.0320888582         -0.3509
H369       H   -0.0295899753   -0.2479346069    0.0071152712           0.625
H370       H    0.0198517521   -0.2788578658   -0.0201726499         -0.3311
H371       H   -0.0316899743   -0.3005501626    0.0096230470          0.6226
C372       C   -0.0151226610   -0.1936057823   -0.0110166342          0.6415
N373       N   -0.0048122227   -0.1631081042   -0.0070469521         -0.3528
N374       N    0.0088147510   -0.1735363492    0.0082281201          -0.349
N375       N    0.0143106424   -0.2007873442    0.0049679397          -0.344
C376       C   -0.0056635888   -0.1339135233   -0.0077822687         -0.3532
H377       H   -0.0215185649   -0.1956374337   -0.0328249446           0.645
H378       H   -0.0344619440   -0.1963161229    0.0010181456          0.6238
H379       H    0.0223162664   -0.2212542186   -0.0192724126         -0.3297
C380       C   -0.0000000000   -0.1065857064    0.0000000000         -0.3521
H381       H    0.0135060985   -0.1038301202    0.0179847634         -0.3493
H382       H   -0.0195759665   -0.1334008726   -0.0259576821          0.6439
C317       C   -0.0000000000    0.3934142936    0.0000000000         -0.3521
C318       C    0.0239758669    0.3782577754   -0.0006733901         -0.3527
C319       C    0.0241453421    0.3501859600   -0.0028924074         -0.3544
C320       C    0.0010041242    0.3344339816   -0.0044142810          0.6445
C321       C   -0.0226778227    0.3493974554   -0.0031781398         -0.3545
C322       C   -0.0231702952    0.3776029446   -0.0010644947         -0.3528
C323       C    0.0022303535    0.3018805471   -0.0114150546           0.639
H324       H    0.0442936166    0.3400328255   -0.0044144504          0.6444
Br325     Br    0.0603228687    0.3937369241   -0.0007848852         -0.3528
H326       H   -0.0432781163    0.3879190051   -0.0005202552         -0.3523
H327       H   -0.0424383615    0.3384795253   -0.0047084867          0.6444
C328       C   -0.0130104355    0.2774535873    0.0046558674         -0.3484
C329       C    0.0002723264    0.2499971769   -0.0081860163          0.6416
N330       N    0.0296597318    0.2593578033   -0.0099668026          0.6401
N331       N    0.0305721635    0.2899223161   -0.0134240558          0.6374
C332       C   -0.0016059300    0.2196434438    0.0066067513         -0.3469
H333       H    0.0395481871    0.2936488448   -0.0322828568          0.6227
H334       H    0.0394345086    0.2561958752    0.0085894501         -0.3455
H335       H   -0.0354689864    0.2782278899    0.0014059791         -0.3509
H336       H   -0.0073941400    0.2479346069   -0.0295215246           0.625
H337       H   -0.0086882309    0.2788578658    0.0269358963         -0.3311
H338       H   -0.0061437194    0.3005501626   -0.0325440043          0.6226
C339       C   -0.0167666629    0.1936057823   -0.0083030187          0.6415
N340       N   -0.0084742059    0.1631081042   -0.0010024249         -0.3528
N341       N    0.0113743817    0.1735363492    0.0040031533          -0.349
N342       N    0.0110294344    0.2007873442    0.0103839533          -0.344
C343       C   -0.0095201517    0.1339135233   -0.0014165652         -0.3532
H344       H   -0.0390578437    0.1956374337   -0.0038743343           0.645
H345       H   -0.0150541328    0.1963161229   -0.0310166937          0.6238
H346       H   -0.0067491885    0.2212542186    0.0287034856         -0.3297
C347       C    0.0000000000    0.1065857064    0.0000000000         -0.3521
H348       H    0.0221943492    0.1038301202    0.0036437999         -0.3493
H349       H   -0.0320715983    0.1334008726   -0.0053321951          0.6439
C284       C   -0.3934142936   -0.0000000000    0.0000000000         -0.3521
C285       C   -0.3782577754    0.0173504376    0.0165607356         -0.3527
C286       C   -0.3501859600    0.0190462874    0.0151196065         -0.3544
C287       C   -0.3344339816    0.0038429109   -0.0023929434          0.6445
C288       C   -0.3493974554   -0.0137005218   -0.0183488397         -0.3545
C289       C   -0.3776029446   -0.0155488014   -0.0172113481         -0.3528
C290       C   -0.3018805471    0.0096797951   -0.0064482181           0.639
H291       H   -0.3400328255    0.0343061780    0.0283636738          0.6444
Br292     Br   -0.3937369241    0.0430073168    0.0423064444         -0.3528
H293       H   -0.3879190051   -0.0300855054   -0.0311147615         -0.3523
H294       H   -0.3384795253   -0.0265188684   -0.0334654148          0.6444
C295       C   -0.2774535873   -0.0124634886   -0.0059674104         -0.3484
C296       C   -0.2499971769    0.0060077181   -0.0055670772          0.6416
N297       N   -0.2593578033    0.0279530902    0.0140592174          0.6401
N298       N   -0.2899223161    0.0310515179    0.0122745952          0.6374
C299       C   -0.2196434438   -0.0058241336    0.0035082248         -0.3469
H300       H   -0.2936488448    0.0507669974    0.0053808846          0.6227
H301       H   -0.2561958752    0.0216476498    0.0340622721         -0.3455
H302       H   -0.2782278899   -0.0259587305   -0.0242109496         -0.3509
H303       H   -0.2479346069    0.0157714249   -0.0260279826           0.625
H304       H   -0.2788578658   -0.0252516502    0.0127820980         -0.3311
H305       H   -0.3005501626    0.0187987961   -0.0272665137          0.6226
C306       C   -0.1936057823   -0.0058996199   -0.0177554383          0.6415
N307       N   -0.1631081042   -0.0052511510   -0.0067262497         -0.3528
N308       N   -0.1735363492    0.0051600404    0.0108984301          -0.349
N309       N   -0.2007873442    0.0003838059    0.0151435664          -0.344
C310       C   -0.1339135233   -0.0056929486   -0.0077608170         -0.3532
H311       H   -0.1956374337   -0.0247326289   -0.0304765925           0.645
H312       H   -0.1963161229    0.0114433316   -0.0325224901          0.6238
H313       H   -0.2212542186   -0.0251429851    0.0154036337         -0.3297
C314       C   -0.1065857064   -0.0000000000    0.0000000000         -0.3521
H315       H   -0.1038301202    0.0130294511    0.0183330253         -0.3493
H316       H   -0.1334008726   -0.0187805595   -0.0265388453          0.6439
C251       C    0.3934142936   -0.0000000000    0.0000000000         -0.3521
C252       C    0.3782577754    0.0239796358   -0.0005222207         -0.3527
C253       C    0.3501859600    0.0242594794    0.0016855944         -0.3544
C254       C    0.3344339816    0.0012228508    0.0043587588          0.6445
C255       C    0.3493974554   -0.0224912735    0.0043042808         -0.3545
C256       C    0.3776029446   -0.0230884620    0.0022178027         -0.3528
C257       C    0.3018805471    0.0027964217    0.0112897287           0.639
H258       H    0.3400328255    0.0444585685    0.0022017103          0.6444
Br259     Br    0.3937369241    0.0602870360   -0.0022221211         -0.3528
H260       H    0.3879190051   -0.0431984219    0.0026762597         -0.3523
H261       H    0.3384795253   -0.0421510009    0.0068174407          0.6444
C262       C    0.2774535873   -0.0132262842   -0.0040017422         -0.3484
C263       C    0.2499971769    0.0006799166    0.0081622753          0.6416
N264       N    0.2593578033    0.0301195517    0.0084764053          0.6401
N265       N    0.2899223161    0.0312031329    0.0118838945          0.6374
C266       C    0.2196434438   -0.0019331648   -0.0065185157         -0.3469
H267       H    0.2936488448    0.0411077833    0.0302719688          0.6227
H268       H    0.2561958752    0.0389574824   -0.0105438933         -0.3455
H269       H    0.2782278899   -0.0354949828    0.0003632712         -0.3509
H270       H    0.2479346069   -0.0059138261    0.0298533144           0.625
H271       H    0.2788578658   -0.0100197160   -0.0264694759         -0.3311
H272       H    0.3005501626   -0.0045143417    0.0328097275          0.6226
C273       C    0.1936057823   -0.0163320728    0.0091282255          0.6415
N274       N    0.1631081042   -0.0084137244    0.0014234692         -0.3528
N275       N    0.1735363492    0.0111607636   -0.0045649921          -0.349
N276       N    0.2007873442    0.0104982745   -0.0109206750          -0.344
C277       C    0.1339135233   -0.0094377330    0.0018892169         -0.3532
H278       H    0.1956374337   -0.0388162509    0.0058158655           0.645
H279       H    0.1963161229   -0.0134897943    0.0317283415          0.6238
H280       H    0.2212542186   -0.0081711658   -0.0283314963         -0.3297
C281       C    0.1065857064   -0.0000000000    0.0000000000         -0.3521
H282       H    0.1038301202    0.0219851957   -0.0047452697         -0.3493
H283       H    0.1334008726   -0.0317660366    0.0069237739          0.6439
C218       C    0.0000000000    0.0000000000   -0.3934142936         -0.3521
C219       C   -0.0112545790   -0.0211808900   -0.3782577754         -0.3527
C220       C   -0.0133178920   -0.0203469241   -0.3501859600         -0.3544
C221       C   -0.0044008487    0.0010614482   -0.3344339816          0.6445
C222       C    0.0072273264    0.0217290121   -0.3493974554         -0.3545
C223       C    0.0093397278    0.0212312320   -0.3776029446         -0.3528
C224       C   -0.0112176135    0.0030729621   -0.3018805471           0.639
H225       H   -0.0236323722   -0.0377216493   -0.3400328255          0.6444
Br226     Br   -0.0275016356   -0.0536947351   -0.3937369241         -0.3528
H227       H    0.0187602198    0.0390041045   -0.3879190051         -0.3523
H228       H    0.0146349106    0.0401123892   -0.3384795253          0.6444
C229       C    0.0099510945    0.0095877136   -0.2774535873         -0.3484
C230       C   -0.0074548552    0.0033926626   -0.2499971769          0.6416
N231       N   -0.0221056312   -0.0221444781   -0.2593578033          0.6401
N232       N   -0.0256083417   -0.0214260423   -0.2899223161          0.6374
C233       C    0.0066324412   -0.0014962945   -0.2196434438         -0.3469
H234       H   -0.0464915939   -0.0210896573   -0.2936488448          0.6227
H235       H   -0.0098234823   -0.0391453486   -0.2561958752         -0.3455
H236       H    0.0170167297    0.0311521537   -0.2782278899         -0.3509
H237       H   -0.0231635642    0.0197393773   -0.2479346069           0.625
H238       H    0.0279916916   -0.0041824715   -0.2788578658         -0.3311
H239       H   -0.0264269117    0.0199618597   -0.3005501626          0.6226
C240       C    0.0000098988    0.0187099173   -0.1936057823          0.6415
N241       N    0.0028665937    0.0080373915   -0.1631081042         -0.3528
N242       N   -0.0014666371   -0.0119687414   -0.1735363492          -0.349
N243       N    0.0044031818   -0.0144943748   -0.2007873442          -0.344
C244       C    0.0029602260    0.0091584391   -0.1339135233         -0.3532
H245       H    0.0138804338    0.0367132017   -0.1956374337           0.645
H246       H   -0.0211001359    0.0272662148   -0.1963161229          0.6238
H247       H    0.0287138594   -0.0067049171   -0.2212542186         -0.3297
C248       C    0.0000000000    0.0000000000   -0.1065857064         -0.3521
H249       H   -0.0065953570   -0.0215027365   -0.1038301202         -0.3493
H250       H    0.0094706905    0.0311018608   -0.1334008726          0.6439
C185       C   -0.0000000000    0.0000000000    0.1065857064         -0.3521
C186       C   -0.0239731438    0.0007642155    0.1217422246         -0.3527
C187       C   -0.0241342113    0.0029838590    0.1498140400         -0.3544
C188       C   -0.0009873940    0.0044180533    0.1655660184          0.6445
C189       C    0.0226897001    0.0030922043    0.1506025446         -0.3545
C190       C    0.0231741617    0.0009767087    0.1223970554         -0.3528
C191       C   -0.0021870927    0.0114234222    0.1981194529           0.639
H192       H   -0.0442765750    0.0045822208    0.1599671745          0.6444
Br193     Br   -0.0603194624    0.0010134069    0.1062630759         -0.3528
H194       H    0.0432797767    0.0003562965    0.1120809949         -0.3523
H195       H    0.0424558946    0.0045476793    0.1615204747          0.6444
C196       C    0.0129927039   -0.0047051228    0.2225464127         -0.3484
C197       C   -0.0002413125    0.0081869893    0.2500028231          0.6416
N198       N   -0.0296217607    0.0100790941    0.2406421967          0.6401
N199       N   -0.0305210884    0.0135397791    0.2100776839          0.6374
C200       C    0.0015808894   -0.0066127878    0.2803565562         -0.3469
H201       H   -0.0394256028    0.0324324496    0.2063511552          0.6227
H202       H   -0.0394667659   -0.0084399946    0.2438041248         -0.3455
H203       H    0.0354634054   -0.0015403398    0.2217721101         -0.3509
H204       H    0.0075059264    0.0294933008    0.2520653931           0.625
H205       H    0.0085861246   -0.0269686175    0.2211421342         -0.3311
H206       H    0.0062669651    0.0325204959    0.1994498374          0.6226
C207       C    0.0167979977    0.0082394403    0.3063942177          0.6415
N208       N    0.0084779427    0.0009703140    0.3368918958         -0.3528
N209       N   -0.0113894657   -0.0039600338    0.3264636508          -0.349
N210       N   -0.0110686939   -0.0103420949    0.2992126558          -0.344
C211       C    0.0095254499    0.0013804889    0.3660864767         -0.3532
H212       H    0.0390722410    0.0037263396    0.3043625663           0.645
H213       H    0.0151715285    0.0309594400    0.3036838771          0.6238
H214       H    0.0066403997   -0.0287288483    0.2787457814         -0.3297
C215       C    0.0000000000    0.0000000000    0.3934142936         -0.3521
H216       H   -0.0222079941   -0.0035596926    0.3961698798         -0.3493
H217       H    0.0320915687    0.0052106567    0.3665991274          0.6439
loop_
_geom_bond_atom_site_label_1
_geom_bond_atom_site_label_2
_geom_bond_distance
_geom_bond_site_symmetry_2
_ccdc_geom_bond_type
Zn1          O5 1.942       .   S
Zn1          O6 1.922       .   S
Zn1         O10 1.922       .   S
Zn1         O17 1.922       .   S
Zn2          O5 1.942       .   S
Zn2          O7 1.922       .   S
Zn2          O9 1.922       .   S
Zn2         O13 1.922       .   S
Zn3          O5 1.942       .   S
Zn3          O8 1.922       .   S
Zn3         O11 1.922       .   S
Zn3         O14 1.922       .   S
Zn4          O5 1.942       .   S
Zn4         O12 1.922       .   S
Zn4         O15 1.922       .   S
Zn4         O16 1.922       .   S
O6          C18 1.304       .   A
O7          C19 1.304       .   A
O8          C20 1.304       .   A
O9          C18 1.304       .   A
O10         C20 1.304       .   A
O11         C19 1.304       .   A
O12         C21 1.304       .   A
O13         C22 1.304       .   A
O14         C21 1.304       .   A
O15         C22 1.304       .   A
O16         C23 1.304       .   A
O17         C23 1.304       .   A
C18        C185 1.540       .   S
C19        C281 1.540       .   S
C20        C380 1.540       .   S
C21        C248 1.540       .   S
C22        C347 1.540       .   S
C23        C314 1.540       .   S
Zn24        O28 1.942       .   S
Zn24        O29 1.922       .   S
Zn24        O33 1.922       .   S
Zn24        O40 1.922       .   S
Zn25        O28 1.942       .   S
Zn25        O30 1.922       .   S
Zn25        O32 1.922       .   S
Zn25        O36 1.922       .   S
Zn26        O28 1.942       .   S
Zn26        O31 1.922       .   S
Zn26        O34 1.922       .   S
Zn26        O37 1.922       .   S
Zn27        O28 1.942       .   S
Zn27        O35 1.922       .   S
Zn27        O38 1.922       .   S
Zn27        O39 1.922       .   S
O29         C41 1.304       .   A
O30         C42 1.304       .   A
O31         C43 1.304       .   A
O32         C41 1.304       .   A
O33         C43 1.304       .   A
O34         C42 1.304       .   A
O35         C44 1.304       .   A
O36         C45 1.304       .   A
O37         C44 1.304       .   A
O38         C45 1.304       .   A
O39         C46 1.304       .   A
O40         C46 1.304       .   A
C41        C215 1.540   1_655   S
C42        C383 1.540       .   S
C43        C449 1.540       .   S
C44        C218 1.540   1_656   S
C45        C482 1.540       .   S
C46        C446 1.540       .   S
Zn47        O51 1.942       .   S
Zn47        O52 1.922       .   S
Zn47        O56 1.922       .   S
Zn47        O63 1.922       .   S
Zn48        O51 1.942       .   S
Zn48        O53 1.922       .   S
Zn48        O55 1.922       .   S
Zn48        O59 1.922       .   S
Zn49        O51 1.942       .   S
Zn49        O54 1.922       .   S
Zn49        O57 1.922       .   S
Zn49        O60 1.922       .   S
Zn50        O51 1.942       .   S
Zn50        O58 1.922       .   S
Zn50        O61 1.922       .   S
Zn50        O62 1.922       .   S
O52         C64 1.304       .   A
O53         C65 1.304       .   A
O54         C66 1.304       .   A
O55         C64 1.304       .   A
O56         C66 1.304       .   A
O57         C65 1.304       .   A
O58         C67 1.304       .   A
O59         C68 1.304       .   A
O60         C67 1.304       .   A
O61         C68 1.304       .   A
O62         C69 1.304       .   A
O63         C69 1.304       .   A
C64        C317 1.540   1_655   S
C65        C515 1.540       .   S
C66        C611 1.540       .   S
C67        C350 1.540   1_665   S
C68        C614 1.540       .   S
C69        C548 1.540       .   S
Zn70        O74 1.942       .   S
Zn70        O75 1.922       .   S
Zn70        O79 1.922       .   S
Zn70        O86 1.922       .   S
Zn71        O74 1.942       .   S
Zn71        O76 1.922       .   S
Zn71        O78 1.922       .   S
Zn71        O82 1.922       .   S
Zn72        O74 1.942       .   S
Zn72        O77 1.922       .   S
Zn72        O80 1.922       .   S
Zn72        O83 1.922       .   S
Zn73        O74 1.942       .   S
Zn73        O81 1.922       .   S
Zn73        O84 1.922       .   S
Zn73        O85 1.922       .   S
O75         C87 1.304       .   A
O76         C88 1.304       .   A
O77         C89 1.304       .   A
O78         C87 1.304       .   A
O79         C89 1.304       .   A
O80         C88 1.304       .   A
O81         C90 1.304       .   A
O82         C91 1.304       .   A
O83         C90 1.304       .   A
O84         C91 1.304       .   A
O85         C92 1.304       .   A
O86         C92 1.304       .   A
C87        C479 1.540       .   S
C88        C545 1.540       .   S
C89        C710 1.540       .   S
C90        C512 1.540   1_565   S
C91        C677 1.540       .   S
C92        C578 1.540   1_556   S
Zn93        O97 1.942       .   S
Zn93        O98 1.922       .   S
Zn93       O102 1.922       .   S
Zn93       O109 1.922       .   S
Zn94        O97 1.942       .   S
Zn94        O99 1.922       .   S
Zn94       O101 1.922       .   S
Zn94       O105 1.922       .   S
Zn95        O97 1.942       .   S
Zn95       O100 1.922       .   S
Zn95       O103 1.922       .   S
Zn95       O106 1.922       .   S
Zn96        O97 1.942       .   S
Zn96       O104 1.922       .   S
Zn96       O107 1.922       .   S
Zn96       O108 1.922       .   S
O98        C110 1.304       .   A
O99        C111 1.304       .   A
O100       C112 1.304       .   A
O101       C110 1.304       .   A
O102       C112 1.304       .   A
O103       C111 1.304       .   A
O104       C113 1.304       .   A
O105       C114 1.304       .   A
O106       C113 1.304       .   A
O107       C114 1.304       .   A
O108       C115 1.304       .   A
O109       C115 1.304       .   A
C110       C251 1.540   1_565   S
C111       C713 1.540       .   S
C112       C812 1.540       .   S
C113       C284 1.540   1_665   S
C114       C779 1.540       .   S
C115       C746 1.540       .   S
Zn116      O120 1.942       .   S
Zn116      O121 1.922       .   S
Zn116      O125 1.922       .   S
Zn116      O132 1.922       .   S
Zn117      O120 1.942       .   S
Zn117      O122 1.922       .   S
Zn117      O124 1.922       .   S
Zn117      O128 1.922       .   S
Zn118      O120 1.942       .   S
Zn118      O123 1.922       .   S
Zn118      O126 1.922       .   S
Zn118      O129 1.922       .   S
Zn119      O120 1.942       .   S
Zn119      O127 1.922       .   S
Zn119      O130 1.922       .   S
Zn119      O131 1.922       .   S
O121       C133 1.304       .   A
O122       C134 1.304       .   A
O123       C135 1.304       .   A
O124       C133 1.304       .   A
O125       C135 1.304       .   A
O126       C134 1.304       .   A
O127       C136 1.304       .   A
O128       C137 1.304       .   A
O129       C136 1.304       .   A
O130       C137 1.304       .   A
O131       C138 1.304       .   A
O132       C138 1.304       .   A
C133       C413 1.540   1_465   S
C134       C743 1.540       .   S
C135       C845 1.540       .   S
C136       C416 1.540   1_565   S
C137       C878 1.540       .   S
C138       C776 1.540   1_556   S
Zn139      O143 1.942       .   S
Zn139      O144 1.922       .   S
Zn139      O148 1.922       .   S
Zn139      O155 1.922       .   S
Zn140      O143 1.942       .   S
Zn140      O145 1.922       .   S
Zn140      O147 1.922       .   S
Zn140      O151 1.922       .   S
Zn141      O143 1.942       .   S
Zn141      O146 1.922       .   S
Zn141      O149 1.922       .   S
Zn141      O152 1.922       .   S
Zn142      O143 1.942       .   S
Zn142      O150 1.922       .   S
Zn142      O153 1.922       .   S
Zn142      O154 1.922       .   S
O144       C156 1.304       .   A
O145       C157 1.304       .   A
O146       C158 1.304       .   A
O147       C156 1.304       .   A
O148       C158 1.304       .   A
O149       C157 1.304       .   A
O150       C159 1.304       .   A
O151       C160 1.304       .   A
O152       C159 1.304       .   A
O153       C160 1.304       .   A
O154       C161 1.304       .   A
O155       C161 1.304       .   A
C156       C581 1.540   1_455   S
C157       C809 1.540   1_545   S
C158       C974 1.540       .   S
C159       C644 1.540       .   S
C160       C941 1.540       .   S
C161       C842 1.540       .   S
Zn162      O166 1.942       .   S
Zn162      O167 1.922       .   S
Zn162      O171 1.922       .   S
Zn162      O178 1.922       .   S
Zn163      O166 1.942       .   S
Zn163      O168 1.922       .   S
Zn163      O170 1.922       .   S
Zn163      O174 1.922       .   S
Zn164      O166 1.942       .   S
Zn164      O169 1.922       .   S
Zn164      O172 1.922       .   S
Zn164      O175 1.922       .   S
Zn165      O166 1.942       .   S
Zn165      O173 1.922       .   S
Zn165      O176 1.922       .   S
Zn165      O177 1.922       .   S
O167       C179 1.304       .   A
O168       C180 1.304       .   A
O169       C181 1.304       .   A
O170       C179 1.304       .   A
O171       C181 1.304       .   A
O172       C180 1.304       .   A
O173       C182 1.304       .   A
O174       C183 1.304       .   A
O175       C182 1.304       .   A
O176       C183 1.304       .   A
O177       C184 1.304       .   A
O178       C184 1.304       .   A
C179       C647 1.540   1_455   S
C180       C875 1.540   1_545   S
C181       C911 1.540       .   S
C182       C680 1.540       .   S
C183       C944 1.540   1_556   S
C184       C908 1.540       .   S
C944       C945 0.022       .   A
C944       C949 0.022       .   A
C945       C946 0.022       .   A
C945      Br952 0.031       .   A
C946       C947 0.022       .   A
C946       H951 0.018       .   A
C947       C948 0.022       .   A
C947       C950 0.026       .   A
C948       C949 0.022       .   A
C948       H954 0.018       .   A
C949       H953 0.018       .   A
C950       C955 0.026       .   A
C950       N958 0.024       .   A
C950       H965 0.018       .   A
C955       C956 0.026       .   A
C955       H962 0.018       .   A
C955       H964 0.018       .   A
C956       N957 0.024       .   A
C956       C959 0.026       .   A
C956       H963 0.018       .   A
N957       N958 0.024       .   A
N957       H961 0.017       .   A
N958       H960 0.017       .   A
C959       C966 0.026       .   A
C959       N969 0.018       .   A
C959       H973 0.018       .   A
C966       N967 0.025       .   A
C966       H971 0.018       .   A
C966       H972 0.018       .   A
N967       N968 0.018       .   A
N967       C970 0.023       .   A
N968       N969 0.022       .   A
C970       C974 0.023       .   A
C970       H976 0.018       .   A
C974       H975 0.018       .   A
C911       C912 0.022       .   A
C911       C916 0.022       .   A
C912       C913 0.022       .   A
C912      Br919 0.031       .   A
C913       C914 0.022       .   A
C913       H918 0.018       .   A
C914       C915 0.022       .   A
C914       C917 0.026       .   A
C915       C916 0.022       .   A
C915       H921 0.018       .   A
C916       H920 0.018       .   A
C917       C922 0.026       .   A
C917       N925 0.024       .   A
C917       H932 0.018       .   A
C922       C923 0.026       .   A
C922       H929 0.018       .   A
C922       H931 0.018       .   A
C923       N924 0.024       .   A
C923       C926 0.026       .   A
C923       H930 0.018       .   A
N924       N925 0.024       .   A
N924       H928 0.017       .   A
N925       H927 0.017       .   A
C926       C933 0.026       .   A
C926       N936 0.018       .   A
C926       H940 0.018       .   A
C933       N934 0.025       .   A
C933       H938 0.018       .   A
C933       H939 0.018       .   A
N934       N935 0.018       .   A
N934       C937 0.023       .   A
N935       N936 0.022       .   A
C937       C941 0.023       .   A
C937       H943 0.018       .   A
C941       H942 0.018       .   A
C878       C879 0.022       .   A
C878       C883 0.022       .   A
C879       C880 0.022       .   A
C879      Br886 0.031       .   A
C880       C881 0.022       .   A
C880       H885 0.018       .   A
C881       C882 0.022       .   A
C881       C884 0.026       .   A
C882       C883 0.022       .   A
C882       H888 0.018       .   A
C883       H887 0.018       .   A
C884       C889 0.026       .   A
C884       N892 0.024       .   A
C884       H899 0.018       .   A
C889       C890 0.026       .   A
C889       H896 0.018       .   A
C889       H898 0.018       .   A
C890       N891 0.024       .   A
C890       C893 0.026       .   A
C890       H897 0.018       .   A
N891       N892 0.024       .   A
N891       H895 0.017       .   A
N892       H894 0.017       .   A
C893       C900 0.026       .   A
C893       N903 0.018       .   A
C893       H907 0.018       .   A
C900       N901 0.025       .   A
C900       H905 0.018       .   A
C900       H906 0.018       .   A
N901       N902 0.018       .   A
N901       C904 0.023       .   A
N902       N903 0.022       .   A
C904       C908 0.023       .   A
C904       H910 0.018       .   A
C908       H909 0.018       .   A
C845       C846 0.022       .   A
C845       C850 0.022       .   A
C846       C847 0.022       .   A
C846      Br853 0.031       .   A
C847       C848 0.022       .   A
C847       H852 0.018       .   A
C848       C849 0.022       .   A
C848       C851 0.026       .   A
C849       C850 0.022       .   A
C849       H855 0.018       .   A
C850       H854 0.018       .   A
C851       C856 0.026       .   A
C851       N859 0.024       .   A
C851       H866 0.018       .   A
C856       C857 0.026       .   A
C856       H863 0.018       .   A
C856       H865 0.018       .   A
C857       N858 0.024       .   A
C857       C860 0.026       .   A
C857       H864 0.018       .   A
N858       N859 0.024       .   A
N858       H862 0.017       .   A
N859       H861 0.017       .   A
C860       C867 0.026       .   A
C860       N870 0.018       .   A
C860       H874 0.018       .   A
C867       N868 0.025       .   A
C867       H872 0.018       .   A
C867       H873 0.018       .   A
N868       N869 0.018       .   A
N868       C871 0.023       .   A
N869       N870 0.022       .   A
C871       C875 0.023       .   A
C871       H877 0.018       .   A
C875       H876 0.018       .   A
C812       C813 0.022       .   A
C812       C817 0.022       .   A
C813       C814 0.022       .   A
C813      Br820 0.031       .   A
C814       C815 0.022       .   A
C814       H819 0.018       .   A
C815       C816 0.022       .   A
C815       C818 0.026       .   A
C816       C817 0.022       .   A
C816       H822 0.018       .   A
C817       H821 0.018       .   A
C818       C823 0.026       .   A
C818       N826 0.024       .   A
C818       H833 0.018       .   A
C823       C824 0.026       .   A
C823       H830 0.018       .   A
C823       H832 0.018       .   A
C824       N825 0.024       .   A
C824       C827 0.026       .   A
C824       H831 0.018       .   A
N825       N826 0.024       .   A
N825       H829 0.017       .   A
N826       H828 0.017       .   A
C827       C834 0.026       .   A
C827       N837 0.018       .   A
C827       H841 0.018       .   A
C834       N835 0.025       .   A
C834       H839 0.018       .   A
C834       H840 0.018       .   A
N835       N836 0.018       .   A
N835       C838 0.023       .   A
N836       N837 0.022       .   A
C838       C842 0.023       .   A
C838       H844 0.018       .   A
C842       H843 0.018       .   A
C779       C780 0.022       .   A
C779       C784 0.022       .   A
C780       C781 0.022       .   A
C780      Br787 0.031       .   A
C781       C782 0.022       .   A
C781       H786 0.018       .   A
C782       C783 0.022       .   A
C782       C785 0.026       .   A
C783       C784 0.022       .   A
C783       H789 0.018       .   A
C784       H788 0.018       .   A
C785       C790 0.026       .   A
C785       N793 0.024       .   A
C785       H800 0.018       .   A
C790       C791 0.026       .   A
C790       H797 0.018       .   A
C790       H799 0.018       .   A
C791       N792 0.024       .   A
C791       C794 0.026       .   A
C791       H798 0.018       .   A
N792       N793 0.024       .   A
N792       H796 0.017       .   A
N793       H795 0.017       .   A
C794       C801 0.026       .   A
C794       N804 0.018       .   A
C794       H808 0.018       .   A
C801       N802 0.025       .   A
C801       H806 0.018       .   A
C801       H807 0.018       .   A
N802       N803 0.018       .   A
N802       C805 0.023       .   A
N803       N804 0.022       .   A
C805       C809 0.023       .   A
C805       H811 0.018       .   A
C809       H810 0.018       .   A
C746       C747 0.022       .   A
C746       C751 0.022       .   A
C747       C748 0.022       .   A
C747      Br754 0.031       .   A
C748       C749 0.022       .   A
C748       H753 0.018       .   A
C749       C750 0.022       .   A
C749       C752 0.026       .   A
C750       C751 0.022       .   A
C750       H756 0.018       .   A
C751       H755 0.018       .   A
C752       C757 0.026       .   A
C752       N760 0.024       .   A
C752       H767 0.018       .   A
C757       C758 0.026       .   A
C757       H764 0.018       .   A
C757       H766 0.018       .   A
C758       N759 0.024       .   A
C758       C761 0.026       .   A
C758       H765 0.018       .   A
N759       N760 0.024       .   A
N759       H763 0.017       .   A
N760       H762 0.017       .   A
C761       C768 0.026       .   A
C761       N771 0.018       .   A
C761       H775 0.018       .   A
C768       N769 0.025       .   A
C768       H773 0.018       .   A
C768       H774 0.018       .   A
N769       N770 0.018       .   A
N769       C772 0.023       .   A
N770       N771 0.022       .   A
C772       C776 0.023       .   A
C772       H778 0.018       .   A
C776       H777 0.018       .   A
C713       C714 0.022       .   A
C713       C718 0.022       .   A
C714       C715 0.022       .   A
C714      Br721 0.031       .   A
C715       C716 0.022       .   A
C715       H720 0.018       .   A
C716       C717 0.022       .   A
C716       C719 0.026       .   A
C717       C718 0.022       .   A
C717       H723 0.018       .   A
C718       H722 0.018       .   A
C719       C724 0.026       .   A
C719       N727 0.024       .   A
C719       H734 0.018       .   A
C724       C725 0.026       .   A
C724       H731 0.018       .   A
C724       H733 0.018       .   A
C725       N726 0.024       .   A
C725       C728 0.026       .   A
C725       H732 0.018       .   A
N726       N727 0.024       .   A
N726       H730 0.017       .   A
N727       H729 0.017       .   A
C728       C735 0.026       .   A
C728       N738 0.018       .   A
C728       H742 0.018       .   A
C735       N736 0.025       .   A
C735       H740 0.018       .   A
C735       H741 0.018       .   A
N736       N737 0.018       .   A
N736       C739 0.023       .   A
N737       N738 0.022       .   A
C739       C743 0.023       .   A
C739       H745 0.018       .   A
C743       H744 0.018       .   A
C680       C681 0.022       .   A
C680       C685 0.022       .   A
C681       C682 0.022       .   A
C681      Br688 0.031       .   A
C682       C683 0.022       .   A
C682       H687 0.018       .   A
C683       C684 0.022       .   A
C683       C686 0.026       .   A
C684       C685 0.022       .   A
C684       H690 0.018       .   A
C685       H689 0.018       .   A
C686       C691 0.026       .   A
C686       N694 0.024       .   A
C686       H701 0.018       .   A
C691       C692 0.026       .   A
C691       H698 0.018       .   A
C691       H700 0.018       .   A
C692       N693 0.024       .   A
C692       C695 0.026       .   A
C692       H699 0.018       .   A
N693       N694 0.024       .   A
N693       H697 0.017       .   A
N694       H696 0.017       .   A
C695       C702 0.026       .   A
C695       N705 0.018       .   A
C695       H709 0.018       .   A
C702       N703 0.025       .   A
C702       H707 0.018       .   A
C702       H708 0.018       .   A
N703       N704 0.018       .   A
N703       C706 0.023       .   A
N704       N705 0.022       .   A
C706       C710 0.023       .   A
C706       H712 0.018       .   A
C710       H711 0.018       .   A
C647       C648 0.022       .   A
C647       C652 0.022       .   A
C648       C649 0.022       .   A
C648      Br655 0.031       .   A
C649       C650 0.022       .   A
C649       H654 0.018       .   A
C650       C651 0.022       .   A
C650       C653 0.026       .   A
C651       C652 0.022       .   A
C651       H657 0.018       .   A
C652       H656 0.018       .   A
C653       C658 0.026       .   A
C653       N661 0.024       .   A
C653       H668 0.018       .   A
C658       C659 0.026       .   A
C658       H665 0.018       .   A
C658       H667 0.018       .   A
C659       N660 0.024       .   A
C659       C662 0.026       .   A
C659       H666 0.018       .   A
N660       N661 0.024       .   A
N660       H664 0.017       .   A
N661       H663 0.017       .   A
C662       C669 0.026       .   A
C662       N672 0.018       .   A
C662       H676 0.018       .   A
C669       N670 0.025       .   A
C669       H674 0.018       .   A
C669       H675 0.018       .   A
N670       N671 0.018       .   A
N670       C673 0.023       .   A
N671       N672 0.022       .   A
C673       C677 0.023       .   A
C673       H679 0.018       .   A
C677       H678 0.018       .   A
C614       C615 0.022       .   A
C614       C619 0.022       .   A
C615       C616 0.022       .   A
C615      Br622 0.031       .   A
C616       C617 0.022       .   A
C616       H621 0.018       .   A
C617       C618 0.022       .   A
C617       C620 0.026       .   A
C618       C619 0.022       .   A
C618       H624 0.018       .   A
C619       H623 0.018       .   A
C620       C625 0.026       .   A
C620       N628 0.024       .   A
C620       H635 0.018       .   A
C625       C626 0.026       .   A
C625       H632 0.018       .   A
C625       H634 0.018       .   A
C626       N627 0.024       .   A
C626       C629 0.026       .   A
C626       H633 0.018       .   A
N627       N628 0.024       .   A
N627       H631 0.017       .   A
N628       H630 0.017       .   A
C629       C636 0.026       .   A
C629       N639 0.018       .   A
C629       H643 0.018       .   A
C636       N637 0.025       .   A
C636       H641 0.018       .   A
C636       H642 0.018       .   A
N637       N638 0.018       .   A
N637       C640 0.023       .   A
N638       N639 0.022       .   A
C640       C644 0.023       .   A
C640       H646 0.018       .   A
C644       H645 0.018       .   A
C581       C582 0.022       .   A
C581       C586 0.022       .   A
C582       C583 0.022       .   A
C582      Br589 0.031       .   A
C583       C584 0.022       .   A
C583       H588 0.018       .   A
C584       C585 0.022       .   A
C584       C587 0.026       .   A
C585       C586 0.022       .   A
C585       H591 0.018       .   A
C586       H590 0.018       .   A
C587       C592 0.026       .   A
C587       N595 0.024       .   A
C587       H602 0.018       .   A
C592       C593 0.026       .   A
C592       H599 0.018       .   A
C592       H601 0.018       .   A
C593       N594 0.024       .   A
C593       C596 0.026       .   A
C593       H600 0.018       .   A
N594       N595 0.024       .   A
N594       H598 0.017       .   A
N595       H597 0.017       .   A
C596       C603 0.026       .   A
C596       N606 0.018       .   A
C596       H610 0.018       .   A
C603       N604 0.025       .   A
C603       H608 0.018       .   A
C603       H609 0.018       .   A
N604       N605 0.018       .   A
N604       C607 0.023       .   A
N605       N606 0.022       .   A
C607       C611 0.023       .   A
C607       H613 0.018       .   A
C611       H612 0.018       .   A
C548       C549 0.022       .   A
C548       C553 0.022       .   A
C549       C550 0.022       .   A
C549      Br556 0.031       .   A
C550       C551 0.022       .   A
C550       H555 0.018       .   A
C551       C552 0.022       .   A
C551       C554 0.026       .   A
C552       C553 0.022       .   A
C552       H558 0.018       .   A
C553       H557 0.018       .   A
C554       C559 0.026       .   A
C554       N562 0.024       .   A
C554       H569 0.018       .   A
C559       C560 0.026       .   A
C559       H566 0.018       .   A
C559       H568 0.018       .   A
C560       N561 0.024       .   A
C560       C563 0.026       .   A
C560       H567 0.018       .   A
N561       N562 0.024       .   A
N561       H565 0.017       .   A
N562       H564 0.017       .   A
C563       C570 0.026       .   A
C563       N573 0.018       .   A
C563       H577 0.018       .   A
C570       N571 0.025       .   A
C570       H575 0.018       .   A
C570       H576 0.018       .   A
N571       N572 0.018       .   A
N571       C574 0.023       .   A
N572       N573 0.022       .   A
C574       C578 0.023       .   A
C574       H580 0.018       .   A
C578       H579 0.018       .   A
C515       C516 0.022       .   A
C515       C520 0.022       .   A
C516       C517 0.022       .   A
C516      Br523 0.031       .   A
C517       C518 0.022       .   A
C517       H522 0.018       .   A
C518       C519 0.022       .   A
C518       C521 0.026       .   A
C519       C520 0.022       .   A
C519       H525 0.018       .   A
C520       H524 0.018       .   A
C521       C526 0.026       .   A
C521       N529 0.024       .   A
C521       H536 0.018       .   A
C526       C527 0.026       .   A
C526       H533 0.018       .   A
C526       H535 0.018       .   A
C527       N528 0.024       .   A
C527       C530 0.026       .   A
C527       H534 0.018       .   A
N528       N529 0.024       .   A
N528       H532 0.017       .   A
N529       H531 0.017       .   A
C530       C537 0.026       .   A
C530       N540 0.018       .   A
C530       H544 0.018       .   A
C537       N538 0.025       .   A
C537       H542 0.018       .   A
C537       H543 0.018       .   A
N538       N539 0.018       .   A
N538       C541 0.023       .   A
N539       N540 0.022       .   A
C541       C545 0.023       .   A
C541       H547 0.018       .   A
C545       H546 0.018       .   A
C482       C483 0.022       .   A
C482       C487 0.022       .   A
C483       C484 0.022       .   A
C483      Br490 0.031       .   A
C484       C485 0.022       .   A
C484       H489 0.018       .   A
C485       C486 0.022       .   A
C485       C488 0.026       .   A
C486       C487 0.022       .   A
C486       H492 0.018       .   A
C487       H491 0.018       .   A
C488       C493 0.026       .   A
C488       N496 0.024       .   A
C488       H503 0.018       .   A
C493       C494 0.026       .   A
C493       H500 0.018       .   A
C493       H502 0.018       .   A
C494       N495 0.024       .   A
C494       C497 0.026       .   A
C494       H501 0.018       .   A
N495       N496 0.024       .   A
N495       H499 0.017       .   A
N496       H498 0.017       .   A
C497       C504 0.026       .   A
C497       N507 0.018       .   A
C497       H511 0.018       .   A
C504       N505 0.025       .   A
C504       H509 0.018       .   A
C504       H510 0.018       .   A
N505       N506 0.018       .   A
N505       C508 0.023       .   A
N506       N507 0.022       .   A
C508       C512 0.023       .   A
C508       H514 0.018       .   A
C512       H513 0.018       .   A
C449       C450 0.022       .   A
C449       C454 0.022       .   A
C450       C451 0.022       .   A
C450      Br457 0.031       .   A
C451       C452 0.022       .   A
C451       H456 0.018       .   A
C452       C453 0.022       .   A
C452       C455 0.026       .   A
C453       C454 0.022       .   A
C453       H459 0.018       .   A
C454       H458 0.018       .   A
C455       C460 0.026       .   A
C455       N463 0.024       .   A
C455       H470 0.018       .   A
C460       C461 0.026       .   A
C460       H467 0.018       .   A
C460       H469 0.018       .   A
C461       N462 0.024       .   A
C461       C464 0.026       .   A
C461       H468 0.018       .   A
N462       N463 0.024       .   A
N462       H466 0.017       .   A
N463       H465 0.017       .   A
C464       C471 0.026       .   A
C464       N474 0.018       .   A
C464       H478 0.018       .   A
C471       N472 0.025       .   A
C471       H476 0.018       .   A
C471       H477 0.018       .   A
N472       N473 0.018       .   A
N472       C475 0.023       .   A
N473       N474 0.022       .   A
C475       C479 0.023       .   A
C475       H481 0.018       .   A
C479       H480 0.018       .   A
C416       C417 0.022       .   A
C416       C421 0.022       .   A
C417       C418 0.022       .   A
C417      Br424 0.031       .   A
C418       C419 0.022       .   A
C418       H423 0.018       .   A
C419       C420 0.022       .   A
C419       C422 0.026       .   A
C420       C421 0.022       .   A
C420       H426 0.018       .   A
C421       H425 0.018       .   A
C422       C427 0.026       .   A
C422       N430 0.024       .   A
C422       H437 0.018       .   A
C427       C428 0.026       .   A
C427       H434 0.018       .   A
C427       H436 0.018       .   A
C428       N429 0.024       .   A
C428       C431 0.026       .   A
C428       H435 0.018       .   A
N429       N430 0.024       .   A
N429       H433 0.017       .   A
N430       H432 0.017       .   A
C431       C438 0.026       .   A
C431       N441 0.018       .   A
C431       H445 0.018       .   A
C438       N439 0.025       .   A
C438       H443 0.018       .   A
C438       H444 0.018       .   A
N439       N440 0.018       .   A
N439       C442 0.023       .   A
N440       N441 0.022       .   A
C442       C446 0.023       .   A
C442       H448 0.018       .   A
C446       H447 0.018       .   A
C383       C384 0.022       .   A
C383       C388 0.022       .   A
C384       C385 0.022       .   A
C384      Br391 0.031       .   A
C385       C386 0.022       .   A
C385       H390 0.018       .   A
C386       C387 0.022       .   A
C386       C389 0.026       .   A
C387       C388 0.022       .   A
C387       H393 0.018       .   A
C388       H392 0.018       .   A
C389       C394 0.026       .   A
C389       N397 0.024       .   A
C389       H404 0.018       .   A
C394       C395 0.026       .   A
C394       H401 0.018       .   A
C394       H403 0.018       .   A
C395       N396 0.024       .   A
C395       C398 0.026       .   A
C395       H402 0.018       .   A
N396       N397 0.024       .   A
N396       H400 0.017       .   A
N397       H399 0.017       .   A
C398       C405 0.026       .   A
C398       N408 0.018       .   A
C398       H412 0.018       .   A
C405       N406 0.025       .   A
C405       H410 0.018       .   A
C405       H411 0.018       .   A
N406       N407 0.018       .   A
N406       C409 0.023       .   A
N407       N408 0.022       .   A
C409       C413 0.023       .   A
C409       H415 0.018       .   A
C413       H414 0.018       .   A
C350       C351 0.022       .   A
C350       C355 0.022       .   A
C351       C352 0.022       .   A
C351      Br358 0.031       .   A
C352       C353 0.022       .   A
C352       H357 0.018       .   A
C353       C354 0.022       .   A
C353       C356 0.026       .   A
C354       C355 0.022       .   A
C354       H360 0.018       .   A
C355       H359 0.018       .   A
C356       C361 0.026       .   A
C356       N364 0.024       .   A
C356       H371 0.018       .   A
C361       C362 0.026       .   A
C361       H368 0.018       .   A
C361       H370 0.018       .   A
C362       N363 0.024       .   A
C362       C365 0.026       .   A
C362       H369 0.018       .   A
N363       N364 0.024       .   A
N363       H367 0.017       .   A
N364       H366 0.017       .   A
C365       C372 0.026       .   A
C365       N375 0.018       .   A
C365       H379 0.018       .   A
C372       N373 0.025       .   A
C372       H377 0.018       .   A
C372       H378 0.018       .   A
N373       N374 0.018       .   A
N373       C376 0.023       .   A
N374       N375 0.022       .   A
C376       C380 0.023       .   A
C376       H382 0.018       .   A
C380       H381 0.018       .   A
C317       C318 0.022       .   A
C317       C322 0.022       .   A
C318       C319 0.022       .   A
C318      Br325 0.031       .   A
C319       C320 0.022       .   A
C319       H324 0.018       .   A
C320       C321 0.022       .   A
C320       C323 0.026       .   A
C321       C322 0.022       .   A
C321       H327 0.018       .   A
C322       H326 0.018       .   A
C323       C328 0.026       .   A
C323       N331 0.024       .   A
C323       H338 0.018       .   A
C328       C329 0.026       .   A
C328       H335 0.018       .   A
C328       H337 0.018       .   A
C329       N330 0.024       .   A
C329       C332 0.026       .   A
C329       H336 0.018       .   A
N330       N331 0.024       .   A
N330       H334 0.017       .   A
N331       H333 0.017       .   A
C332       C339 0.026       .   A
C332       N342 0.018       .   A
C332       H346 0.018       .   A
C339       N340 0.025       .   A
C339       H344 0.018       .   A
C339       H345 0.018       .   A
N340       N341 0.018       .   A
N340       C343 0.023       .   A
N341       N342 0.022       .   A
C343       C347 0.023       .   A
C343       H349 0.018       .   A
C347       H348 0.018       .   A
C284       C285 0.022       .   A
C284       C289 0.022       .   A
C285       C286 0.022       .   A
C285      Br292 0.031       .   A
C286       C287 0.022       .   A
C286       H291 0.018       .   A
C287       C288 0.022       .   A
C287       C290 0.026       .   A
C288       C289 0.022       .   A
C288       H294 0.018       .   A
C289       H293 0.018       .   A
C290       C295 0.026       .   A
C290       N298 0.024       .   A
C290       H305 0.018       .   A
C295       C296 0.026       .   A
C295       H302 0.018       .   A
C295       H304 0.018       .   A
C296       N297 0.024       .   A
C296       C299 0.026       .   A
C296       H303 0.018       .   A
N297       N298 0.024       .   A
N297       H301 0.017       .   A
N298       H300 0.017       .   A
C299       C306 0.026       .   A
C299       N309 0.018       .   A
C299       H313 0.018       .   A
C306       N307 0.025       .   A
C306       H311 0.018       .   A
C306       H312 0.018       .   A
N307       N308 0.018       .   A
N307       C310 0.023       .   A
N308       N309 0.022       .   A
C310       C314 0.023       .   A
C310       H316 0.018       .   A
C314       H315 0.018       .   A
C251       C252 0.022       .   A
C251       C256 0.022       .   A
C252       C253 0.022       .   A
C252      Br259 0.031       .   A
C253       C254 0.022       .   A
C253       H258 0.018       .   A
C254       C255 0.022       .   A
C254       C257 0.026       .   A
C255       C256 0.022       .   A
C255       H261 0.018       .   A
C256       H260 0.018       .   A
C257       C262 0.026       .   A
C257       N265 0.024       .   A
C257       H272 0.018       .   A
C262       C263 0.026       .   A
C262       H269 0.018       .   A
C262       H271 0.018       .   A
C263       N264 0.024       .   A
C263       C266 0.026       .   A
C263       H270 0.018       .   A
N264       N265 0.024       .   A
N264       H268 0.017       .   A
N265       H267 0.017       .   A
C266       C273 0.026       .   A
C266       N276 0.018       .   A
C266       H280 0.018       .   A
C273       N274 0.025       .   A
C273       H278 0.018       .   A
C273       H279 0.018       .   A
N274       N275 0.018       .   A
N274       C277 0.023       .   A
N275       N276 0.022       .   A
C277       C281 0.023       .   A
C277       H283 0.018       .   A
C281       H282 0.018       .   A
C218       C219 0.022       .   A
C218       C223 0.022       .   A
C219       C220 0.022       .   A
C219      Br226 0.031       .   A
C220       C221 0.022       .   A
C220       H225 0.018       .   A
C221       C222 0.022       .   A
C221       C224 0.026       .   A
C222       C223 0.022       .   A
C222       H228 0.018       .   A
C223       H227 0.018       .   A
C224       C229 0.026       .   A
C224       N232 0.024       .   A
C224       H239 0.018       .   A
C229       C230 0.026       .   A
C229       H236 0.018       .   A
C229       H238 0.018       .   A
C230       N231 0.024       .   A
C230       C233 0.026       .   A
C230       H237 0.018       .   A
N231       N232 0.024       .   A
N231       H235 0.017       .   A
N232       H234 0.017       .   A
C233       C240 0.026       .   A
C233       N243 0.018       .   A
C233       H247 0.018       .   A
C240       N241 0.025       .   A
C240       H245 0.018       .   A
C240       H246 0.018       .   A
N241       N242 0.018       .   A
N241       C244 0.023       .   A
N242       N243 0.022       .   A
C244       C248 0.023       .   A
C244       H250 0.018       .   A
C248       H249 0.018       .   A
C185       C186 0.022       .   A
C185       C190 0.022       .   A
C186       C187 0.022       .   A
C186      Br193 0.031       .   A
C187       C188 0.022       .   A
C187       H192 0.018       .   A
C188       C189 0.022       .   A
C188       C191 0.026       .   A
C189       C190 0.022       .   A
C189       H195 0.018       .   A
C190       H194 0.018       .   A
C191       C196 0.026       .   A
C191       N199 0.024       .   A
C191       H206 0.018       .   A
C196       C197 0.026       .   A
C196       H203 0.018       .   A
C196       H205 0.018       .   A
C197       N198 0.024       .   A
C197       C200 0.026       .   A
C197       H204 0.018       .   A
N198       N199 0.024       .   A
N198       H202 0.017       .   A
N199       H201 0.017       .   A
C200       C207 0.026       .   A
C200       N210 0.018       .   A
C200       H214 0.018       .   A
C207       N208 0.025       .   A
C207       H212 0.018       .   A
C207       H213 0.018       .   A
N208       N209 0.018       .   A
N208       C211 0.023       .   A
N209       N210 0.022       .   A
C211       C215 0.023       .   A
C211       H217 0.018       .   A
C215       H216 0.018       .   A
