data_pcu_v1-6c_Zn_1_Ch_1-19_fer_tobacco
_audit_creation_date              2021-02-03
_audit_creation_method            'tobacco_3.0'
_symmetry_space_group_name_H-M    'P1'
_symmetry_Int_Tables_number       1
_symmetry_cell_setting            triclinic
loop_
_symmetry_equiv_pos_as_xyz
  x,y,z
_cell_length_a                    45.86832982003479
_cell_length_b                    45.86832982003479
_cell_length_c                    45.86832982003479
_cell_angle_alpha                 90.0
_cell_angle_beta                  90.0
_cell_angle_gamma                 90.0
loop_
_atom_site_label
_atom_site_type_symbol
_atom_site_fract_x
_atom_site_fract_y
_atom_site_fract_z
_atom_site_charge
Zn1       Zn   -0.0244438811   -0.0244438811    0.0244438811          1.4972
Zn2       Zn    0.0244438811    0.0244438811    0.0244438811          1.4936
Zn3       Zn    0.0244438811   -0.0244438811   -0.0244438811          1.4911
Zn4       Zn   -0.0244438811    0.0244438811   -0.0244438811          1.4948
O5         O    0.0000000000    0.0000000000    0.0000000000          -2.346
O6         O   -0.0179644649   -0.0179644649    0.0653304799         -1.2523
O7         O    0.0653304799    0.0179644649    0.0179644649         -1.2505
O8         O    0.0179644649   -0.0653304799   -0.0179644649         -1.2457
O9         O    0.0179644649    0.0179644649    0.0653304799         -1.2525
O10        O   -0.0179644649   -0.0653304799    0.0179644649         -1.2485
O11        O    0.0653304799   -0.0179644649   -0.0179644649         -1.2543
O12        O   -0.0179644649    0.0179644649   -0.0653304799         -1.2482
O13        O    0.0179644649    0.0653304799    0.0179644649         -1.2558
O14        O    0.0179644649   -0.0179644649   -0.0653304799         -1.2497
O15        O   -0.0179644649    0.0653304799   -0.0179644649         -1.2544
O16        O   -0.0653304799    0.0179644649   -0.0179644649         -1.2535
O17        O   -0.0653304799   -0.0179644649    0.0179644649         -1.2513
C18        C   -0.0000000000   -0.0000000000    0.0781105398          0.2666
C19        C    0.0781105398   -0.0000000000   -0.0000000000          0.2715
C20        C   -0.0000000000   -0.0781105398    0.0000000000           0.261
C21        C    0.0000000000    0.0000000000   -0.0781105398          0.2648
C22        C    0.0000000000    0.0781105398   -0.0000000000          0.2762
C23        C   -0.0781105398    0.0000000000    0.0000000000          0.2667
Zn24      Zn    0.9755561189   -0.0244438811    0.4755561189          1.4972
Zn25      Zn    1.0244438811   -0.0244438811    0.5244438811          1.4936
Zn26      Zn    1.0244438811    0.0244438811    0.4755561189          1.4911
Zn27      Zn    0.9755561189    0.0244438811    0.5244438811          1.4948
O28        O    1.0000000000    0.0000000000    0.5000000000          -2.346
O29        O    0.9820355351   -0.0653304799    0.4820355351         -1.2523
O30        O    1.0653304799   -0.0179644649    0.5179644649         -1.2505
O31        O    1.0179644649    0.0179644649    0.4346695201         -1.2457
O32        O    1.0179644649   -0.0653304799    0.5179644649         -1.2525
O33        O    0.9820355351   -0.0179644649    0.4346695201         -1.2485
O34        O    1.0653304799    0.0179644649    0.4820355351         -1.2543
O35        O    0.9820355351    0.0653304799    0.5179644649         -1.2482
O36        O    1.0179644649   -0.0179644649    0.5653304799         -1.2558
O37        O    1.0179644649    0.0653304799    0.4820355351         -1.2497
O38        O    0.9820355351    0.0179644649    0.5653304799         -1.2544
O39        O    0.9346695201    0.0179644649    0.5179644649         -1.2535
O40        O    0.9346695201   -0.0179644649    0.4820355351         -1.2513
C41        C    1.0000000000   -0.0781105398    0.5000000000          0.2666
C42        C    1.0781105398    0.0000000000    0.5000000000          0.2715
C43        C    1.0000000000    0.0000000000    0.4218894602           0.261
C44        C    1.0000000000    0.0781105398    0.5000000000          0.2648
C45        C    1.0000000000    0.0000000000    0.5781105398          0.2762
C46        C    0.9218894602    0.0000000000    0.5000000000          0.2667
Zn47      Zn    1.0244438811    0.4755561189   -0.0244438811          1.4972
Zn48      Zn    0.9755561189    0.4755561189    0.0244438811          1.4936
Zn49      Zn    1.0244438811    0.5244438811    0.0244438811          1.4911
Zn50      Zn    0.9755561189    0.5244438811   -0.0244438811          1.4948
O51        O    1.0000000000    0.5000000000    0.0000000000          -2.346
O52        O    1.0179644649    0.4346695201   -0.0179644649         -1.2523
O53        O    0.9820355351    0.4820355351    0.0653304799         -1.2505
O54        O    1.0653304799    0.5179644649    0.0179644649         -1.2457
O55        O    0.9820355351    0.4346695201    0.0179644649         -1.2525
O56        O    1.0653304799    0.4820355351   -0.0179644649         -1.2485
O57        O    1.0179644649    0.5179644649    0.0653304799         -1.2543
O58        O    0.9820355351    0.5653304799   -0.0179644649         -1.2482
O59        O    0.9346695201    0.4820355351    0.0179644649         -1.2558
O60        O    1.0179644649    0.5653304799    0.0179644649         -1.2497
O61        O    0.9346695201    0.5179644649   -0.0179644649         -1.2544
O62        O    0.9820355351    0.5179644649   -0.0653304799         -1.2535
O63        O    1.0179644649    0.4820355351   -0.0653304799         -1.2513
C64        C    1.0000000000    0.4218894602    0.0000000000          0.2666
C65        C    1.0000000000    0.5000000000    0.0781105398          0.2715
C66        C    1.0781105398    0.5000000000    0.0000000000          0.2642
C67        C    1.0000000000    0.5781105398    0.0000000000          0.2648
C68        C    0.9218894602    0.5000000000    0.0000000000          0.2762
C69        C    1.0000000000    0.5000000000   -0.0781105398          0.2667
Zn70      Zn    0.9755561189    0.5244438811    0.5244438811          1.4972
Zn71      Zn    1.0244438811    0.5244438811    0.4755561189          1.4936
Zn72      Zn    1.0244438811    0.4755561189    0.5244438811          1.4911
Zn73      Zn    0.9755561189    0.4755561189    0.4755561189          1.4948
O74        O    1.0000000000    0.5000000000    0.5000000000          -2.346
O75        O    0.9820355351    0.5653304799    0.5179644649         -1.2523
O76        O    1.0653304799    0.5179644649    0.4820355351         -1.2505
O77        O    1.0179644649    0.4820355351    0.5653304799         -1.2457
O78        O    1.0179644649    0.5653304799    0.4820355351         -1.2525
O79        O    0.9820355351    0.5179644649    0.5653304799         -1.2485
O80        O    1.0653304799    0.4820355351    0.5179644649         -1.2543
O81        O    0.9820355351    0.4346695201    0.4820355351         -1.2482
O82        O    1.0179644649    0.5179644649    0.4346695201         -1.2558
O83        O    1.0179644649    0.4346695201    0.5179644649         -1.2497
O84        O    0.9820355351    0.4820355351    0.4346695201         -1.2544
O85        O    0.9346695201    0.4820355351    0.4820355351         -1.2535
O86        O    0.9346695201    0.5179644649    0.5179644649         -1.2513
C87        C    1.0000000000    0.5781105398    0.5000000000          0.2666
C88        C    1.0781105398    0.5000000000    0.5000000000          0.2715
C89        C    1.0000000000    0.5000000000    0.5781105398           0.261
C90        C    1.0000000000    0.4218894602    0.5000000000          0.2648
C91        C    1.0000000000    0.5000000000    0.4218894602          0.2762
C92        C    0.9218894602    0.5000000000    0.5000000000          0.2667
Zn93      Zn    0.4755561189    0.9755561189   -0.0244438811          1.4972
Zn94      Zn    0.4755561189    1.0244438811    0.0244438811          1.4936
Zn95      Zn    0.5244438811    0.9755561189    0.0244438811          1.4911
Zn96      Zn    0.5244438811    1.0244438811   -0.0244438811          1.4948
O97        O    0.5000000000    1.0000000000    0.0000000000          -2.346
O98        O    0.4346695201    0.9820355351   -0.0179644649         -1.2523
O99        O    0.4820355351    1.0179644649    0.0653304799         -1.2505
O100       O    0.5179644649    0.9346695201    0.0179644649         -1.2457
O101       O    0.4346695201    1.0179644649    0.0179644649         -1.2525
O102       O    0.4820355351    0.9346695201   -0.0179644649         -1.2485
O103       O    0.5179644649    0.9820355351    0.0653304799         -1.2543
O104       O    0.5653304799    1.0179644649   -0.0179644649         -1.2482
O105       O    0.4820355351    1.0653304799    0.0179644649         -1.2558
O106       O    0.5653304799    0.9820355351    0.0179644649         -1.2497
O107       O    0.5179644649    1.0653304799   -0.0179644649         -1.2544
O108       O    0.5179644649    1.0179644649   -0.0653304799         -1.2535
O109       O    0.4820355351    0.9820355351   -0.0653304799         -1.2513
C110       C    0.4218894602    1.0000000000    0.0000000000          0.2666
C111       C    0.5000000000    1.0000000000    0.0781105398          0.2715
C112       C    0.5000000000    0.9218894602    0.0000000000           0.261
C113       C    0.5781105398    1.0000000000    0.0000000000          0.2648
C114       C    0.5000000000    1.0781105398    0.0000000000          0.2762
C115       C    0.5000000000    1.0000000000   -0.0781105398          0.2667
Zn116     Zn    0.4755561189    1.0244438811    0.5244438811          1.4972
Zn117     Zn    0.4755561189    0.9755561189    0.4755561189          1.4936
Zn118     Zn    0.5244438811    1.0244438811    0.4755561189          1.4911
Zn119     Zn    0.5244438811    0.9755561189    0.5244438811          1.4948
O120       O    0.5000000000    1.0000000000    0.5000000000          -2.346
O121       O    0.4346695201    1.0179644649    0.5179644649         -1.2523
O122       O    0.4820355351    0.9820355351    0.4346695201         -1.2505
O123       O    0.5179644649    1.0653304799    0.4820355351         -1.2457
O124       O    0.4346695201    0.9820355351    0.4820355351         -1.2525
O125       O    0.4820355351    1.0653304799    0.5179644649         -1.2485
O126       O    0.5179644649    1.0179644649    0.4346695201         -1.2543
O127       O    0.5653304799    0.9820355351    0.5179644649         -1.2482
O128       O    0.4820355351    0.9346695201    0.4820355351         -1.2558
O129       O    0.5653304799    1.0179644649    0.4820355351         -1.2497
O130       O    0.5179644649    0.9346695201    0.5179644649         -1.2544
O131       O    0.5179644649    0.9820355351    0.5653304799         -1.2535
O132       O    0.4820355351    1.0179644649    0.5653304799         -1.2513
C133       C    0.4218894602    1.0000000000    0.5000000000          0.2666
C134       C    0.5000000000    1.0000000000    0.4218894602          0.2715
C135       C    0.5000000000    1.0781105398    0.5000000000           0.261
C136       C    0.5781105398    1.0000000000    0.5000000000          0.2648
C137       C    0.5000000000    0.9218894602    0.5000000000          0.2762
C138       C    0.5000000000    1.0000000000    0.5781105398          0.2667
Zn139     Zn    0.5244438811    0.4755561189    0.0244438811          1.4972
Zn140     Zn    0.4755561189    0.5244438811    0.0244438811          1.4936
Zn141     Zn    0.5244438811    0.5244438811   -0.0244438811          1.4911
Zn142     Zn    0.4755561189    0.4755561189   -0.0244438811          1.4948
O143       O    0.5000000000    0.5000000000    0.0000000000          -2.346
O144       O    0.5179644649    0.4820355351    0.0653304799         -1.2523
O145       O    0.4820355351    0.5653304799    0.0179644649         -1.2505
O146       O    0.5653304799    0.5179644649   -0.0179644649         -1.2457
O147       O    0.4820355351    0.5179644649    0.0653304799         -1.2525
O148       O    0.5653304799    0.4820355351    0.0179644649         -1.2485
O149       O    0.5179644649    0.5653304799   -0.0179644649         -1.2543
O150       O    0.4820355351    0.4820355351   -0.0653304799         -1.2482
O151       O    0.4346695201    0.5179644649    0.0179644649         -1.2558
O152       O    0.5179644649    0.5179644649   -0.0653304799         -1.2497
O153       O    0.4346695201    0.4820355351   -0.0179644649         -1.2544
O154       O    0.4820355351    0.4346695201   -0.0179644649         -1.2535
O155       O    0.5179644649    0.4346695201    0.0179644649         -1.2513
C156       C    0.5000000000    0.5000000000    0.0781105398          0.2666
C157       C    0.5000000000    0.5781105398    0.0000000000          0.2715
C158       C    0.5781105398    0.5000000000    0.0000000000           0.261
C159       C    0.5000000000    0.5000000000   -0.0781105398          0.2648
C160       C    0.4218894602    0.5000000000    0.0000000000          0.2762
C161       C    0.5000000000    0.4218894602    0.0000000000          0.2667
Zn162     Zn    0.4755561189    0.5244438811    0.4755561189          1.4972
Zn163     Zn    0.4755561189    0.4755561189    0.5244438811          1.4936
Zn164     Zn    0.5244438811    0.4755561189    0.4755561189          1.4911
Zn165     Zn    0.5244438811    0.5244438811    0.5244438811          1.4948
O166       O    0.5000000000    0.5000000000    0.5000000000          -2.346
O167       O    0.4346695201    0.5179644649    0.4820355351         -1.2523
O168       O    0.4820355351    0.4346695201    0.5179644649         -1.2505
O169       O    0.5179644649    0.4820355351    0.4346695201         -1.2457
O170       O    0.4346695201    0.4820355351    0.5179644649         -1.2525
O171       O    0.4820355351    0.5179644649    0.4346695201         -1.2485
O172       O    0.5179644649    0.4346695201    0.4820355351         -1.2543
O173       O    0.5653304799    0.5179644649    0.5179644649         -1.2482
O174       O    0.4820355351    0.4820355351    0.5653304799         -1.2558
O175       O    0.5653304799    0.4820355351    0.4820355351         -1.2497
O176       O    0.5179644649    0.5179644649    0.5653304799         -1.2544
O177       O    0.5179644649    0.5653304799    0.5179644649         -1.2535
O178       O    0.4820355351    0.5653304799    0.4820355351         -1.2513
C179       C    0.4218894602    0.5000000000    0.5000000000          0.2666
C180       C    0.5000000000    0.4218894602    0.5000000000          0.2715
C181       C    0.5000000000    0.5000000000    0.4218894602           0.261
C182       C    0.5781105398    0.5000000000    0.5000000000          0.2648
C183       C    0.5000000000    0.5000000000    0.5781105398          0.2762
C184       C    0.5000000000    0.5781105398    0.5000000000          0.2667
C898       C    0.5000000000    0.5000000000   -0.3883150963          0.4912
C899       C    0.4768466754    0.5009496450   -0.3694194411          0.4918
C900       C    0.4786142494    0.5016122963   -0.3396176154          0.4916
C901       C    0.5036976902    0.5014507627   -0.3239947416          0.4909
C902       C    0.5274099989    0.5005395420   -0.3426216619          0.4902
C903       C    0.5250087863    0.4998413102   -0.3727715690          0.4904
C904       C    0.5032390952    0.5022339464   -0.2935154949          0.4907
H905       H    0.4580299895    0.5023848820   -0.3277961474          0.4921
H906       H    0.4546879922    0.5012504007   -0.3779262015         -0.5076
H907       H    0.5449195813    0.4992199277   -0.3856395875          0.4898
C908       C    0.5594222586    0.5001792858   -0.3333379883          0.4892
C909       C    0.5027236255    0.5025828574   -0.2653719637          0.4909
C910       C    0.5022160251    0.5026657909   -0.2329044034          0.4913
C911       C    0.5672949520    0.4943468972   -0.3013289213         -0.5062
H912       H    0.5569684436    0.4743473120   -0.2935735414         -0.4905
H913       H    0.5908612562    0.4918075816   -0.2993260095         -0.5053
H914       H    0.5608245305    0.5127002226   -0.2876387475          0.4803
H915       H    0.5692704047    0.5208865087   -0.3398207128           0.473
H916       H    0.5705015906    0.4833222754   -0.3460747374         -0.4987
C917       C    0.5011818544    0.5018645081   -0.2048436528         -0.5076
C918       C    0.4970808894    0.4971768262   -0.1700186482         -0.5034
C919       C    0.5179520098    0.5050495844   -0.1423099155          0.4901
C920       C    0.5000000000    0.5000000000   -0.1116849037         -0.5048
N921       N    0.4717740266    0.5113582923   -0.1236026275          0.4877
N922       N    0.4693836701    0.5075767866   -0.1562139488          0.4902
H923       H    0.4525357705    0.4935311498   -0.1597599451         -0.4985
H924       H    0.4706944486    0.5333610182   -0.1208731000          0.4711
H925       H    0.5377541479    0.4918280773   -0.1427462653         -0.5007
H926       H    0.4974984457    0.4764314976   -0.1090289880         -0.4868
H927       H    0.5245048220    0.5279002251   -0.1438589086          0.4725
H928       H    0.4956493411    0.4734112319   -0.1687482625         -0.4853
C867       C    0.5000000000    0.5000000000    0.1116849037          0.4912
C868       C    0.4768315622    0.4995508285    0.1305805589          0.4918
C869       C    0.4785559306    0.5003189289    0.1603823846          0.4916
C870       C    0.5036034125    0.5016712401    0.1760052584          0.4909
C871       C    0.5273274974    0.5021924953    0.1573783381          0.4902
C872       C    0.5249727918    0.5013506452    0.1272284310          0.4904
C873       C    0.5030983954    0.5024253249    0.2064845051          0.4907
H874       H    0.4579625601    0.4998480397    0.1722038526          0.4921
H875       H    0.4546951078    0.4985139674    0.1220737985         -0.5076
H876       H    0.5448848009    0.5019318247    0.1143604125          0.4898
C877       C    0.5593031638    0.5037645354    0.1666620117          0.4892
C878       C    0.5025628114    0.5027424963    0.2346280363          0.4909
C879       C    0.5020511316    0.5027946497    0.2670955966          0.4913
C880       C    0.5675134419    0.4984178175    0.1986710787         -0.5062
H881       H    0.5584125375    0.4778315667    0.2064264586         -0.4905
H882       H    0.5911900285    0.4973051345    0.2006739905         -0.5053
H883       H    0.5599473593    0.5163472710    0.2123612525          0.4803
H884       H    0.5678838782    0.5250282698    0.1601792872           0.473
H885       H    0.5713794701    0.4876067749    0.1539252626         -0.4987
C886       C    0.5010671952    0.5019324245    0.2951563472         -0.5076
C887       C    0.4972565606    0.4970058295    0.3299813518         -0.5034
C888       C    0.5176146034    0.5061236187    0.3576900845          0.4901
C889       C    0.5000000000    0.5000000000    0.3883150963         -0.5048
N890       N    0.4711400922    0.5096344228    0.3763973725          0.4877
N891       N    0.4689822698    0.5057155720    0.3437860512          0.4902
H892       H    0.4530125921    0.4906789158    0.3402400549         -0.4985
H893       H    0.4687348232    0.5315319140    0.3791269000          0.4711
H894       H    0.5381784529    0.4941210768    0.3572537347         -0.5007
H895       H    0.4989251421    0.4763234978    0.3909710120         -0.4868
H896       H    0.5227766534    0.5293280228    0.3561410914          0.4725
H897       H    0.4972616516    0.4731971593    0.3312517375         -0.4853
C836       C    0.5000000000    0.8883150963    0.5000000000          0.4912
C837       C    0.5185928319    0.8694194411    0.4861694227          0.4918
C838       C    0.5167591864    0.8396176154    0.4866179411          0.4916
C839       C    0.4961277340    0.8239947416    0.5008849755          0.4909
C840       C    0.4770514516    0.8426216619    0.5149987757          0.4902
C841       C    0.4794286205    0.8727715690    0.5142226200          0.4904
C842       C    0.4960653035    0.7935154949    0.4999795538          0.4907
H843       H    0.5333293737    0.8277961474    0.4743812121          0.4921
H844       H    0.5367295742    0.8779262015    0.4734353631         -0.5076
H845       H    0.4633296131    0.8856395875    0.5259549614          0.4898
C846       C    0.4508077875    0.8333379883    0.5333341145          0.4892
C847       C    0.4962945561    0.7653719637    0.4994008559          0.4909
C848       C    0.4966671759    0.7329044034    0.4990463272          0.4913
C849       C    0.4475901628    0.8013289213    0.5425884621         -0.5062
H850       H    0.4673903411    0.7935735414    0.5532923457         -0.4905
H851       H    0.4295518716    0.7993260095    0.5579650308         -0.5053
H852       H    0.4425942309    0.7876387475    0.5237801774          0.4803
H853       H    0.4310040766    0.8398207128    0.5217760826           0.473
H854       H    0.4511529895    0.8460747374    0.5535031807         -0.4987
C855       C    0.4979730402    0.7048436528    0.4991255835         -0.5076
C856       C    0.5040023516    0.6700186482    0.5006875308         -0.5034
C857       C    0.4823238476    0.6423099155    0.5059436180          0.4901
C858       C    0.5000000000    0.6116849037    0.5000000000         -0.5048
N859       N    0.5169186723    0.6236026275    0.4747121589          0.4877
N860       N    0.5210241825    0.6562139488    0.4764893407          0.4902
H861       H    0.5428571242    0.6597599451    0.4785998595         -0.4985
H862       H    0.5054128397    0.6208731000    0.4559264927          0.4711
H863       H    0.4734143071    0.6427462653    0.5280242206         -0.5007
H864       H    0.5153466112    0.6090289880    0.5180613843         -0.4868
H865       H    0.4640348126    0.6438589086    0.4907580219          0.4725
H866       H    0.5185760404    0.6687482625    0.5195146495         -0.4853
C805       C    0.5000000000    1.3883150963    0.5000000000          0.4912
C806       C    0.5230493004    1.3694194411    0.5023891458          0.4918
C807       C    0.5213953656    1.3396176154    0.5014792423          0.4916
C808       C    0.4965493154    1.3239947416    0.4980326665          0.4909
C809       C    0.4729523633    1.3426216619    0.4955251264          0.4902
C810       C    0.4752282376    1.3727715690    0.4965613436          0.4904
C811       C    0.4971157497    1.2935154949    0.4973235556          0.4907
H812       H    0.5418768366    1.3277961474    0.5036742344          0.4921
H813       H    0.5450209980    1.3779262015    0.5052774321         -0.5076
H814       H    0.4554349738    1.3856395875    0.4943135483          0.4898
C815       C    0.4412209124    1.3333379883    0.4912790011          0.4892
C816       C    0.4976760292    1.2653719637    0.4970523826          0.4909
C817       C    0.4981902797    1.2329044034    0.4970432923          0.4913
C818       C    0.4325914503    1.3013289213    0.4959188765         -0.5062
H819       H    0.4399351793    1.2935735414    0.5171953853         -0.4905
H820       H    0.4089049025    1.2993260095    0.4950435076         -0.5053
H821       H    0.4416334374    1.2876387475    0.4786865412          0.4803
H822       H    0.4344523179    1.3398207128    0.4693709845           0.473
H823       H    0.4278330374    1.3460747374    0.5063679110         -0.4987
C824       C    0.4990984991    1.2048436528    0.4979849402         -0.5076
C825       C    0.5024828727    1.1700186482    0.5032135432         -0.5034
C826       C    0.4829605265    1.1423099155    0.4924217878          0.4901
C827       C    0.5000000000    1.1116849037    0.5000000000         -0.5048
N828       N    0.5295657726    1.1236026275    0.4928179758          0.4877
N829       N    0.5313875984    1.1562139488    0.4969038711          0.4902
H830       H    0.5460410048    1.1597599451    0.5132259211         -0.4985
H831       H    0.5337976278    1.1208731000    0.4711990758          0.4711
H832       H    0.4614631779    1.1427462653    0.5026588249         -0.5007
H833       H    0.4990869461    1.1090289880    0.5236832939         -0.4868
H834       H    0.4797612025    1.1438589086    0.4688664178          0.4725
H835       H    0.5004825928    1.1687482625    0.5269380386         -0.4853
C774       C    0.5000000000    0.8883150963    0.0000000000          0.4912
C775       C    0.4978467224    0.8694194411    0.0230725305          0.4918
C776       C    0.4987396623    0.8396176154    0.0214093759          0.4916
C777       C    0.5019319378    0.8239947416   -0.0034706256          0.4909
C778       C    0.5041980022    0.8426216619   -0.0270919901          0.4902
C779       C    0.5031851163    0.8727715690   -0.0248056366          0.4904
C780       C    0.5026468049    0.7935154949   -0.0029114735          0.4907
H781       H    0.4967542651    0.8277961474    0.0419122255          0.4921
H782       H    0.4951833091    0.8779262015    0.0450726197         -0.5076
H783       H    0.5052303527    0.8856395875   -0.0446208551          0.4898
C784       C    0.5081193628    0.8333379883   -0.0588652097          0.4892
C785       C    0.5029236941    0.7653719637   -0.0023539968          0.4909
C786       C    0.5029380436    0.7329044034   -0.0018398662          0.4913
C787       C    0.5033914699    0.8013289213   -0.0674467647         -0.5062
H788       H    0.4821911840    0.7935735414   -0.0598858083         -0.4905
H789       H    0.5040245321    0.7993260095   -0.0911410267         -0.5053
H790       H    0.5207153834    0.7876387475   -0.0585814993          0.4803
H791       H    0.5299570058    0.8398207128   -0.0658575206           0.473
H792       H    0.4928943139    0.8460747374   -0.0720980583         -0.4987
C793       C    0.5020057341    0.7048436528   -0.0009220633         -0.5076
C794       C    0.4968120192    0.6700186482    0.0025156102         -0.5034
C795       C    0.5074035397    0.6423099155   -0.0171160906          0.4901
C796       C    0.5000000000    0.6116849037    0.0000000000         -0.5048
N797       N    0.5074840409    0.6236026275    0.0294907699          0.4877
N798       N    0.5034169926    0.6562139488    0.0313542902          0.4902
H799       H    0.4872456682    0.6597599451    0.0461738685         -0.4985
H800       H    0.5291450927    0.6208731000    0.0335012903          0.4711
H801       H    0.4969471678    0.6427462653   -0.0385076125         -0.5007
H802       H    0.4763086063    0.6090289880   -0.0006707785         -0.4868
H803       H    0.5309249556    0.6438589086   -0.0205561665          0.4725
H804       H    0.4730683062    0.6687482625    0.0007580840         -0.4853
C743       C    0.5000000000    1.3883150963    0.0000000000          0.4912
C744       C    0.5231008364    1.3694194411    0.0018247255          0.4918
C745       C    0.5214251433    1.3396176154    0.0009555436          0.4916
C746       C    0.4965022334    1.3239947416   -0.0018823533          0.4909
C747       C    0.4728510135    1.3426216619   -0.0038120441          0.4902
C748       C    0.4751515493    1.3727715690   -0.0028317967          0.4904
C749       C    0.4970511559    1.2935154949   -0.0026051052          0.4907
H750       H    0.5419541700    1.3277961474    0.0026489736          0.4921
H751       H    0.5451365996    1.3779262015    0.0041747965         -0.5076
H752       H    0.4553092326    1.3856395875   -0.0045948453          0.4898
C753       C    0.4410252082    1.3333379883   -0.0072808583          0.4892
C754       C    0.4976046359    1.2653719637   -0.0028898995          0.4909
C755       C    0.4981185102    1.2329044034   -0.0029115639          0.4913
C756       C    0.4325118025    1.3013289213   -0.0024313242         -0.5062
H757       H    0.4403736843    1.2935735414    0.0186592187         -0.4905
H758       H    0.4088109310    1.2993260095   -0.0027271406         -0.5053
H759       H    0.4411296420    1.2876387475   -0.0198796407          0.4803
H760       H    0.4337228444    1.3398207128   -0.0290167858           0.473
H761       H    0.4280103599    1.3460747374    0.0081309592         -0.4987
C762       C    0.4990494874    1.2048436528   -0.0019924096         -0.5076
C763       C    0.5025607221    1.1700186482    0.0031518596         -0.5034
C764       C    0.4827802863    1.1423099155   -0.0071592192          0.4901
C765       C    0.5000000000    1.1116849037    0.0000000000         -0.5048
N766       N    0.5293812820    1.1236026275   -0.0079029519          0.4877
N767       N    0.5313024897    1.1562139488   -0.0038628344          0.4902
H768       H    0.5463506937    1.1597599451    0.0120959623         -0.4985
H769       H    0.5330831483    1.1208731000   -0.0296188821          0.4711
H770       H    0.4615397301    1.1427462653    0.0036005063         -0.5007
H771       H    0.4996664302    1.1090289880    0.0236985402         -0.4868
H772       H    0.4790058369    1.1438589086   -0.0306292993          0.4725
H773       H    0.5011412591    1.1687482625    0.0269181788         -0.4853
C712       C    0.5000000000    1.0000000000   -0.3883150963          0.4912
C713       C    0.5231533246    0.9990503550   -0.3694194411          0.4918
C714       C    0.5213857506    0.9983877037   -0.3396176154          0.4916
C715       C    0.4963023098    0.9985492373   -0.3239947416          0.4909
C716       C    0.4725900011    0.9994604580   -0.3426216619          0.4902
C717       C    0.4749912137    1.0001586898   -0.3727715690          0.4904
C718       C    0.4967609048    0.9977660536   -0.2935154949          0.4907
H719       H    0.5419700105    0.9976151180   -0.3277961474          0.4921
H720       H    0.5453120078    0.9987495993   -0.3779262015         -0.5076
H721       H    0.4550804187    1.0007800723   -0.3856395875          0.4898
C722       C    0.4405777414    0.9998207142   -0.3333379883          0.4892
C723       C    0.4972763745    0.9974171426   -0.2653719637          0.4909
C724       C    0.4977839749    0.9973342091   -0.2329044034          0.4913
C725       C    0.4327050480    1.0056531028   -0.3013289213         -0.5062
H726       H    0.4430315564    1.0256526880   -0.2935735414         -0.4905
H727       H    0.4091387438    1.0081924184   -0.2993260095         -0.5053
H728       H    0.4391754695    0.9872997774   -0.2876387475          0.4803
H729       H    0.4307295953    0.9791134913   -0.3398207128           0.473
H730       H    0.4294984094    1.0166777246   -0.3460747374         -0.4987
C731       C    0.4988181456    0.9981354919   -0.2048436528         -0.5076
C732       C    0.5029191106    1.0028231738   -0.1700186482         -0.5034
C733       C    0.4820479902    0.9949504156   -0.1423099155          0.4901
C734       C    0.5000000000    1.0000000000   -0.1116849037         -0.5048
N735       N    0.5282259734    0.9886417077   -0.1236026275          0.4877
N736       N    0.5306163299    0.9924232134   -0.1562139488          0.4902
H737       H    0.5474642295    1.0064688502   -0.1597599451         -0.4985
H738       H    0.5293055514    0.9666389818   -0.1208731000          0.4711
H739       H    0.4622458521    1.0081719227   -0.1427462653         -0.5007
H740       H    0.5025015543    1.0235685024   -0.1090289880         -0.4868
H741       H    0.4754951780    0.9720997749   -0.1438589086          0.4725
H742       H    0.5043506589    1.0265887681   -0.1687482625         -0.4853
C681       C    0.5000000000    1.0000000000    0.3883150963          0.4912
C682       C    0.4768315622    1.0004491715    0.3694194411          0.4918
C683       C    0.4785559306    0.9996810711    0.3396176154          0.4916
C684       C    0.5036034125    0.9983287599    0.3239947416          0.4909
C685       C    0.5273274974    0.9978075047    0.3426216619          0.4902
C686       C    0.5249727918    0.9986493548    0.3727715690          0.4904
C687       C    0.5030983954    0.9975746751    0.2935154949          0.4907
H688       H    0.4579625601    1.0001519603    0.3277961474          0.4921
H689       H    0.4546951078    1.0014860326    0.3779262015         -0.5076
H690       H    0.5448848009    0.9980681753    0.3856395875          0.4898
C691       C    0.5593031638    0.9962354646    0.3333379883          0.4892
C692       C    0.5025628114    0.9972575037    0.2653719637          0.4909
C693       C    0.5020511316    0.9972053503    0.2329044034          0.4913
C694       C    0.5675134419    1.0015821825    0.3013289213         -0.5062
H695       H    0.5584125375    1.0221684333    0.2935735414         -0.4905
H696       H    0.5911900285    1.0026948655    0.2993260095         -0.5053
H697       H    0.5599473593    0.9836527290    0.2876387475          0.4803
H698       H    0.5678838782    0.9749717302    0.3398207128           0.473
H699       H    0.5713794701    1.0123932251    0.3460747374         -0.4987
C700       C    0.5010671952    0.9980675755    0.2048436528         -0.5076
C701       C    0.4972565606    1.0029941705    0.1700186482         -0.5034
C702       C    0.5176146034    0.9938763813    0.1423099155          0.4901
C703       C    0.5000000000    1.0000000000    0.1116849037         -0.5048
N704       N    0.4711400922    0.9903655772    0.1236026275          0.4877
N705       N    0.4689822698    0.9942844280    0.1562139488          0.4902
H706       H    0.4530125921    1.0093210842    0.1597599451         -0.4985
H707       H    0.4687348232    0.9684680860    0.1208731000          0.4711
H708       H    0.5381784529    1.0058789232    0.1427462653         -0.5007
H709       H    0.4989251421    1.0236765022    0.1090289880         -0.4868
H710       H    0.5227766534    0.9706719772    0.1438589086          0.4725
H711       H    0.4972616516    1.0268028407    0.1687482625         -0.4853
C650       C    0.8883150963    0.5000000000    0.5000000000          0.4912
C651       C    0.8694194411    0.5105755026    0.4793811491          0.4918
C652       C    0.8396176154    0.5104354723    0.4812636518          0.4916
C653       C    0.8239947416    0.4997656339    0.5039651857          0.4909
C654       C    0.8426216619    0.4889905012    0.5251075702          0.4902
C655       C    0.8727715690    0.4893640627    0.5226349599          0.4904
C656       C    0.7935154949    0.5006689564    0.5038774672          0.4907
H657       H    0.8277961474    0.5197724559    0.4629025684          0.4921
H658       H    0.8779262015    0.5201447009    0.4593929491         -0.5076
H659       H    0.8856395875    0.4804468701    0.5404481446          0.4898
C660       C    0.8333379883    0.4752334398    0.5540153169          0.4892
C661       C    0.7653719637    0.5012019318    0.5035559315          0.4909
C662       C    0.7329044034    0.5014901666    0.5031299539          0.4913
C663       C    0.8013289213    0.4666363177    0.5587148435         -0.5062
H664       H    0.7935735414    0.4528141072    0.5409506469         -0.4905
H665       H    0.7993260095    0.4544445473    0.5790416620         -0.5053
H666       H    0.7876387475    0.4860109322    0.5605411029          0.4803
H667       H    0.8398207128    0.4898986896    0.5716421576           0.473
H668       H    0.8460747374    0.4552835266    0.5570005069         -0.4987
C669       C    0.7048436528    0.5011966719    0.5018550327         -0.5076
C670       C    0.6700186482    0.4986619344    0.4961657990         -0.5034
C671       C    0.6423099155    0.4970523496    0.5184142422          0.4901
C672       C    0.6116849037    0.5000000000    0.5000000000         -0.5048
N673       N    0.6236026275    0.5221519912    0.4791432106          0.4877
N674       N    0.6562139488    0.5197221799    0.4753869350          0.4902
H675       H    0.6597599451    0.5140405273    0.4542008439         -0.4985
H676       H    0.6208731000    0.5425777110    0.4873939931          0.4711
H677       H    0.6427462653    0.4767430748    0.5308426885         -0.5007
H678       H    0.6090289880    0.4796553442    0.4878415849         -0.4868
H679       H    0.6438589086    0.5150457556    0.5339489926          0.4725
H680       H    0.6687482625    0.4776894724    0.4848959881         -0.4853
C619       C    1.1116849037    0.5000000000    0.5000000000          0.4912
C620       C    1.1305805589    0.5128578931    0.4807217000          0.4918
C621       C    1.1603823846    0.5112819269    0.4817608127          0.4916
C622       C    1.1760052584    0.4966509776    0.5021358076          0.4909
C623       C    1.1573783381    0.4834330576    0.5218434331          0.4902
C624       C    1.1272284310    0.4854106855    0.5203129633          0.4904
C625       C    1.2064845051    0.4962876566    0.5013041322          0.4907
H626       H    1.1722038526    0.5227710833    0.4646637975          0.4921
H627       H    1.1220737985    0.5256550681    0.4626294363         -0.5076
H628       H    1.1143604125    0.4741956141    0.5367765002          0.4898
C629       C    1.1666620117    0.4648851809    0.5479373179          0.4892
C630       C    1.2346280363    0.4963089152    0.5006820422          0.4909
C631       C    1.2670955966    0.4965405853    0.5002228417          0.4913
C632       C    1.1986710787    0.4649675978    0.5577347291         -0.5062
H633       H    1.2064264586    0.4872143664    0.5611554702         -0.4905
H634       H    1.2006739905    0.4531519141    0.5782824402         -0.5053
H635       H    1.2123612525    0.4539367842    0.5417025096          0.4803
H636       H    1.1601792872    0.4423478032    0.5437133780           0.473
H637       H    1.1539252626    0.4719938920    0.5668152580         -0.4987
C638       C    1.2951563472    0.4977970287    0.4998582690         -0.5076
C639       C    1.3299813518    0.5040004228    0.4993013340         -0.5034
C640       C    1.3576900845    0.4853526992    0.5115425100          0.4901
C641       C    1.3883150963    0.5000000000    0.5000000000         -0.5048
N642       N    1.3763973725    0.5074277563    0.4704950036          0.4877
N643       N    1.3437860512    0.5118918187    0.4707878108          0.4902
H644       H    1.3402400549    0.5331626512    0.4654321294         -0.4985
H645       H    1.3791269000    0.4902739072    0.4566736108          0.4711
H646       H    1.3572537347    0.4843887581    0.5353333431         -0.5007
H647       H    1.3909710120    0.5205272660    0.5118475074         -0.4868
H648       H    1.3561410914    0.4630216673    0.5033928999          0.4725
H649       H    1.3312517375    0.5240573412    0.5121299281         -0.4853
C588       C    0.8883150963    0.5000000000    0.0000000000          0.4912
C589       C    0.8694194411    0.5194136677   -0.0126525796          0.4918
C590       C    0.8396176154    0.5183578887   -0.0110877297          0.4916
C591       C    0.8239947416    0.4978287714    0.0033261677          0.4909
C592       C    0.8426216619    0.4779819817    0.0163341978          0.4902
C593       C    0.8727715690    0.4795333528    0.0143729233          0.4904
C594       C    0.7935154949    0.4986565443    0.0036982944          0.4907
H595       H    0.8277961474    0.5355758689   -0.0223947985          0.4921
H596       H    0.8779262015    0.5376407216   -0.0252570314         -0.5076
H597       H    0.8856395875    0.4629517239    0.0254126452          0.4898
C598       C    0.8333379883    0.4516927286    0.0346041109          0.4892
C599       C    0.7653719637    0.4992788249    0.0036836388          0.4909
C600       C    0.7329044034    0.4997404581    0.0034568550          0.4913
C601       C    0.8013289213    0.4418967437    0.0344177244         -0.5062
H602       H    0.7935735414    0.4387122872    0.0121359063         -0.4905
H603       H    0.7993260095    0.4212247967    0.0460146819         -0.5053
H604       H    0.7876387475    0.4578109968    0.0456180575          0.4803
H605       H    0.8398207128    0.4556772545    0.0571850457           0.473
H606       H    0.8460747374    0.4328912922    0.0272954595         -0.4987
C607       C    0.7048436528    0.5001183441    0.0022043513         -0.5076
C608       C    0.6700186482    0.5007410808   -0.0039927830         -0.5034
C609       C    0.6423099155    0.4883026968    0.0145239821          0.4901
C610       C    0.6116849037    0.5000000000    0.0000000000         -0.5048
N611       N    0.6236026275    0.5295821614   -0.0071142187          0.4877
N612       N    0.6562139488    0.5293367451   -0.0115811371          0.4902
H613       H    0.6597599451    0.5349178598   -0.0327939350         -0.4985
H614       H    0.6208731000    0.5432207320    0.0101853428          0.4711
H615       H    0.6427462653    0.4645029737    0.0152353906         -0.5007
H616       H    0.6090289880    0.4883710037   -0.0206518407         -0.4868
H617       H    0.6438589086    0.4962148617    0.0369402435          0.4725
H618       H    0.6687482625    0.4881260615   -0.0241847143         -0.4853
C557       C    1.1116849037    0.5000000000    0.0000000000          0.4912
C558       C    1.1305805589    0.4841897346   -0.0169414809          0.4918
C559       C    1.1603823846    0.4848391573   -0.0151690038          0.4916
C560       C    1.1760052584    0.5013096273    0.0037500002          0.4909
C561       C    1.1573783381    0.5174550642    0.0211404797          0.4902
C562       C    1.1272284310    0.5164196576    0.0188642365          0.4904
C563       C    1.2064845051    0.5004167435    0.0039126180          0.4907
H564       H    1.1722038526    0.4708375506   -0.0302774006          0.4921
H565       H    1.1220737985    0.4695198632   -0.0335514950         -0.5076
H566       H    1.1143604125    0.5298676598    0.0335603962          0.4898
C567       C    1.1666620117    0.5385920624    0.0451850604          0.4892
C568       C    1.2346280363    0.4998161617    0.0037490655          0.4909
C569       C    1.2670955966    0.4994224366    0.0034181323          0.4913
C570       C    1.1986710787    0.5481465514    0.0473548069         -0.5062
H571       H    1.2064264586    0.5565848054    0.0264881815         -0.4905
H572       H    1.2006739905    0.5654316430    0.0635734512         -0.5053
H573       H    1.2123612525    0.5300096052    0.0544090320          0.4803
H574       H    1.1601792872    0.5293053383    0.0661500745           0.473
H575       H    1.1539252626    0.5585979686    0.0426016297         -0.4987
C576       C    1.2951563472    0.4993561480    0.0021115455         -0.5076
C577       C    1.3299813518    0.5002386978   -0.0040539536         -0.5034
C578       C    1.3576900845    0.5078702901    0.0169065517          0.4901
C579       C    1.3883150963    0.5000000000    0.0000000000         -0.5048
N580       N    1.3763973725    0.4729893379   -0.0140050173          0.4877
N581       N    1.3437860512    0.4742994846   -0.0182825288          0.4902
H582       H    1.3402400549    0.4739717557   -0.0402147934         -0.4985
H583       H    1.3791269000    0.4555979851   -0.0004836902          0.4711
H584       H    1.3572537347    0.5308039131    0.0233082591         -0.5007
H585       H    1.3909710120    0.5162449222   -0.0172578846         -0.4868
H586       H    1.3561410914    0.4948102017    0.0367692107          0.4725
H587       H    1.3312517375    0.5173304713   -0.0206287563         -0.4853
C526       C    1.0000000000    0.5000000000   -0.1116849037          0.4912
C527       C    0.9999334222    0.4768273041   -0.1305805589          0.4918
C528       C    1.0006729469    0.4785641196   -0.1603823846          0.4916
C529       C    1.0016115166    0.5036305150   -0.1760052584          0.4909
C530       C    1.0017409941    0.5273599724   -0.1573783381          0.4902
C531       C    1.0009381370    0.5249916880   -0.1272284310          0.4904
C532       C    1.0023738369    0.5031380174   -0.2064845051          0.4907
H533       H    1.0005421376    0.4579657814   -0.1722038526          0.4921
H534       H    0.9992621959    0.4546767477   -0.1220737985         -0.5076
H535       H    1.0011904715    0.5449105786   -0.1143604125          0.4898
C536       C    1.0027848718    0.5593572359   -0.1666620117          0.4892
C537       C    1.0026998081    0.5026077432   -0.2346280363          0.4909
C538       C    1.0027604027    0.5020969943   -0.2670955966          0.4913
C539       C    0.9973033234    0.5674781155   -0.1986710787         -0.5062
H540       H    0.9768701432    0.5580385535   -0.2064264586         -0.4905
H541       H    0.9957998696    0.5911331032   -0.2006739905         -0.5053
H542       H    1.0153552560    0.5602090963   -0.2123612525          0.4803
H543       H    1.0239040321    0.5682878647   -0.1601792872           0.473
H544       H    0.9864299228    0.5711651163   -0.1539252626         -0.4987
C545       C    1.0019145407    0.5010989559   -0.2951563472         -0.5076
C546       C    0.9970515344    0.4972074980   -0.3299813518         -0.5034
C547       C    1.0058319505    0.5177133089   -0.3576900845          0.4901
C548       C    1.0000000000    0.5000000000   -0.3883150963         -0.5048
N549       N    1.0101096134    0.4713030995   -0.3763973725          0.4877
N550       N    1.0062269245    0.4690808674   -0.3437860512          0.4902
H551       H    0.9914559922    0.4528650974   -0.3402400549         -0.4985
H552       H    1.0320438329    0.4692597063   -0.3791269000          0.4711
H553       H    0.9934915164    0.5380761821   -0.3572537347         -0.5007
H554       H    0.9763444721    0.4985343675   -0.3909710120         -0.4868
H555       H    1.0289479612    0.5232577815   -0.3561410914          0.4725
H556       H    0.9732460256    0.4968194850   -0.3312517375         -0.4853
C495       C    1.0000000000    0.5000000000    0.1116849037          0.4912
C496       C    0.9768315622    0.4995508285    0.1305805589          0.4918
C497       C    0.9785559306    0.5003189289    0.1603823846          0.4916
C498       C    1.0036034125    0.5016712401    0.1760052584          0.4909
C499       C    1.0273274974    0.5021924953    0.1573783381          0.4902
C500       C    1.0249727918    0.5013506452    0.1272284310          0.4904
C501       C    1.0030983954    0.5024253249    0.2064845051          0.4907
H502       H    0.9579625601    0.4998480397    0.1722038526          0.4921
H503       H    0.9546951078    0.4985139674    0.1220737985         -0.5076
H504       H    1.0448848009    0.5019318247    0.1143604125          0.4898
C505       C    1.0593031638    0.5037645354    0.1666620117          0.4892
C506       C    1.0025628114    0.5027424963    0.2346280363          0.4909
C507       C    1.0020511316    0.5027946497    0.2670955966          0.4913
C508       C    1.0675134419    0.4984178175    0.1986710787         -0.5062
H509       H    1.0584125375    0.4778315667    0.2064264586         -0.4905
H510       H    1.0911900285    0.4973051345    0.2006739905         -0.5053
H511       H    1.0599473593    0.5163472710    0.2123612525          0.4803
H512       H    1.0678838782    0.5250282698    0.1601792872           0.473
H513       H    1.0713794701    0.4876067749    0.1539252626         -0.4987
C514       C    1.0010671952    0.5019324245    0.2951563472         -0.5076
C515       C    0.9972565606    0.4970058295    0.3299813518         -0.5034
C516       C    1.0176146034    0.5061236187    0.3576900845          0.4901
C517       C    1.0000000000    0.5000000000    0.3883150963         -0.5048
N518       N    0.9711400922    0.5096344228    0.3763973725          0.4877
N519       N    0.9689822698    0.5057155720    0.3437860512          0.4902
H520       H    0.9530125921    0.4906789158    0.3402400549         -0.4985
H521       H    0.9687348232    0.5315319140    0.3791269000          0.4711
H522       H    1.0381784529    0.4941210768    0.3572537347         -0.5007
H523       H    0.9989251421    0.4763234978    0.3909710120         -0.4868
H524       H    1.0227766534    0.5293280228    0.3561410914          0.4725
H525       H    0.9972616516    0.4731971593    0.3312517375         -0.4853
C464       C    1.0000000000   -0.1116849037    0.5000000000          0.4912
C465       C    1.0231684378   -0.1305805589    0.5004491715          0.4918
C466       C    1.0214440694   -0.1603823846    0.4996810711          0.4916
C467       C    0.9963965875   -0.1760052584    0.4983287599          0.4909
C468       C    0.9726725026   -0.1573783381    0.4978075047          0.4902
C469       C    0.9750272082   -0.1272284310    0.4986493548          0.4904
C470       C    0.9969016046   -0.2064845051    0.4975746751          0.4907
H471       H    1.0420374399   -0.1722038526    0.5001519603          0.4921
H472       H    1.0453048922   -0.1220737985    0.5014860326         -0.5076
H473       H    0.9551151991   -0.1143604125    0.4980681753          0.4898
C474       C    0.9406968362   -0.1666620117    0.4962354646          0.4892
C475       C    0.9974371886   -0.2346280363    0.4972575037          0.4909
C476       C    0.9979488684   -0.2670955966    0.4972053503          0.4913
C477       C    0.9324865581   -0.1986710787    0.5015821825         -0.5062
H478       H    0.9415874625   -0.2064264586    0.5221684333         -0.4905
H479       H    0.9088099715   -0.2006739905    0.5026948655         -0.5053
H480       H    0.9400526407   -0.2123612525    0.4836527290          0.4803
H481       H    0.9321161218   -0.1601792872    0.4749717302           0.473
H482       H    0.9286205299   -0.1539252626    0.5123932251         -0.4987
C483       C    0.9989328048   -0.2951563472    0.4980675755         -0.5076
C484       C    1.0027434394   -0.3299813518    0.5029941705         -0.5034
C485       C    0.9823853966   -0.3576900845    0.4938763813          0.4901
C486       C    1.0000000000   -0.3883150963    0.5000000000         -0.5048
N487       N    1.0288599078   -0.3763973725    0.4903655772          0.4877
N488       N    1.0310177302   -0.3437860512    0.4942844280          0.4902
H489       H    1.0469874079   -0.3402400549    0.5093210842         -0.4985
H490       H    1.0312651768   -0.3791269000    0.4684680860          0.4711
H491       H    0.9618215471   -0.3572537347    0.5058789232         -0.5007
H492       H    1.0010748579   -0.3909710120    0.5236765022         -0.4868
H493       H    0.9772233466   -0.3561410914    0.4706719772          0.4725
H494       H    1.0027383484   -0.3312517375    0.5268028407         -0.4853
C433       C    1.0000000000    0.1116849037    0.5000000000          0.4912
C434       C    0.9960663083    0.1305805589    0.4771635306          0.4918
C435       C    0.9970853713    0.1603823846    0.4787525350          0.4916
C436       C    1.0021949223    0.1760052584    0.5033105803          0.4909
C437       C    1.0062835672    0.1573783381    0.5266855004          0.4902
C438       C    1.0050966540    0.1272284310    0.5244844582          0.4904
C439       C    1.0028643381    0.2064845051    0.5026977438          0.4907
H440       H    0.9935180679    0.1722038526    0.4584650268          0.4921
H441       H    0.9917070695    0.1220737985    0.4554357895         -0.5076
H442       H    1.0086703624    0.1143604125    0.5440817662          0.4898
C443       C    1.0126538676    0.1666620117    0.5580595952          0.4892
C444       C    1.0030972212    0.2346280363    0.5021204974          0.4909
C445       C    1.0030717101    0.2670955966    0.5016067997          0.4913
C446       C    1.0086047842    0.1986710787    0.5669815335         -0.5062
H447       H    0.9868826049    0.2064264586    0.5610851693         -0.4905
H448       H    1.0110709773    0.2006739905    0.5905556020         -0.5053
H449       H    1.0251900840    0.2123612525    0.5568012221          0.4803
H450       H    1.0349674502    0.1601792872    0.5633396609           0.473
H451       H    0.9984993815    0.1539252626    0.5724318226         -0.4987
C452       C    1.0020711203    0.2951563472    0.5007639573         -0.5076
C453       C    0.9966267695    0.3299813518    0.4977388426         -0.5034
C454       C    1.0087068808    0.3576900845    0.5164913063          0.4901
C455       C    1.0000000000    0.3883150963    0.5000000000         -0.5048
N456       N    1.0051776126    0.3763973725    0.4700181937          0.4877
N457       N    1.0009784569    0.3437860512    0.4684752483          0.4902
H458       H    0.9837079814    0.3402400549    0.4549525890         -0.4985
H459       H    1.0264630061    0.3791269000    0.4643421511          0.4711
H460       H    0.9999386080    0.3572537347    0.5386283864         -0.5007
H461       H    0.9764317121    0.3909710120    0.5025035740         -0.4868
H462       H    1.0324240718    0.3561410914    0.5180994040          0.4725
H463       H    0.9730904841    0.3312517375    0.5013299522         -0.4853
C402       C    0.6116849037   -0.0000000000    0.5000000000          0.4912
C403       C    0.6305805589   -0.0136162598    0.5187503530          0.4918
C404       C    0.6603823846   -0.0120001191    0.5177748972          0.4916
C405       C    0.6760052584    0.0034315104    0.4979994096          0.4909
C406       C    0.6573783381    0.0174246272    0.4788344262          0.4902
C407       C    0.6272284310    0.0153875547    0.4802848349          0.4904
C408       C    0.7064845051    0.0037613852    0.4988449087          0.4907
H409       H    0.6722038526   -0.0241617668    0.5344002685          0.4921
H410       H    0.6220737985   -0.0271245648    0.5363180332         -0.5076
H411       H    0.6143604125    0.0272500797    0.4642815110          0.4898
C412       C    0.6666620117    0.0369980713    0.4535007561          0.4892
C413       C    0.7346280363    0.0037153419    0.4994656566          0.4909
C414       C    0.7670955966    0.0034655485    0.4999152558          0.4913
C415       C    0.6986710787    0.0373063242    0.4437078485         -0.5062
H416       H    0.7064264586    0.0152136214    0.4394028904         -0.4905
H417       H    0.7006739905    0.0499318123    0.4236475428         -0.5053
H418       H    0.7123612525    0.0476891936    0.4601670993          0.4803
H419       H    0.6601792872    0.0593491302    0.4586198604           0.473
H420       H    0.6539252626    0.0306476398    0.4343544141         -0.4987
C421       C    0.7951563472    0.0021955692    0.5002294466         -0.5076
C422       C    0.8299813518   -0.0040250968    0.5005386212         -0.5034
C423       C    0.8576900845    0.0150958336    0.4890506271          0.4901
C424       C    0.8883150963   -0.0000000000    0.5000000000         -0.5048
N425       N    0.8763973725   -0.0085981593    0.5291854079          0.4877
N426       N    0.8437860512   -0.0130469989    0.5287148597          0.4902
H427       H    0.8402400549   -0.0345144409    0.5332182552         -0.4985
H428       H    0.8791269000    0.0079910189    0.5436797035          0.4711
H429       H    0.8572537347    0.0170075038    0.4653171394         -0.5007
H430       H    0.8909710120   -0.0200386080    0.4873435287         -0.4868
H431       H    0.8561410914    0.0370842016    0.4980840539          0.4725
H432       H    0.8312517375   -0.0235546171    0.4869205951         -0.4853
C371       C    1.1116849037   -0.0000000000    0.5000000000          0.4912
C372       C    1.1305805589   -0.0061561531    0.5223400995          0.4918
C373       C    1.1603823846   -0.0049860460    0.5208587913          0.4916
C374       C    1.1760052584    0.0025092654    0.4969208423          0.4909
C375       C    1.1573783381    0.0088724738    0.4740601011          0.4902
C376       C    1.1272284310    0.0074752540    0.4761340169          0.4904
C377       C    1.2064845051    0.0031152975    0.4975964244          0.4907
H378       H    1.1722038526   -0.0105273931    0.5406981994          0.4921
H379       H    1.1220737985   -0.0126269741    0.5435350558         -0.5076
H380       H    1.1143604125    0.0129552304    0.4569821049          0.4898
C381       C    1.1666620117    0.0182914591    0.4434627602          0.4892
C382       C    1.2346280363    0.0032903980    0.4981937415          0.4909
C383       C    1.2670955966    0.0032145893    0.4987024548          0.4913
C384       C    1.1986710787    0.0151376374    0.4341864750         -0.5062
H385       H    1.2064264586   -0.0070583966    0.4379222825         -0.4905
H386       H    1.2006739905    0.0199057750    0.4109682993         -0.5053
H387       H    1.2123612525    0.0306436306    0.4459455176          0.4803
H388       H    1.1601792872    0.0410155496    0.4403983229           0.473
H389       H    1.1539252626    0.0056159890    0.4277706331         -0.4987
C390       C    1.2951563472    0.0021361040    0.4994430171         -0.5076
C391       C    1.3299813518   -0.0035788806    0.5019191483         -0.5034
C392       C    1.3576900845    0.0102835009    0.4844429255          0.4901
C393       C    1.3883150963   -0.0000000000    0.5000000000         -0.5048
N394       N    1.3763973725    0.0022098238    0.5303452312          0.4877
N395       N    1.3437860512   -0.0021204997    0.5314685689          0.4902
H396       H    1.3402400549   -0.0206348649    0.5432307929         -0.4985
H397       H    1.3791269000    0.0228353210    0.5380830802          0.4711
H398       H    1.3572537347    0.0037303756    0.4615521092         -0.5007
H399       H    1.3909710120   -0.0232087539    0.4951952294         -0.4868
H400       H    1.3561410914    0.0340440097    0.4851704934          0.4725
H401       H    1.3312517375   -0.0266490423    0.4960352344         -0.4853
C340       C   -0.0000000000   -0.3883150963    0.0000000000          0.4912
C341       C   -0.0217523997   -0.3694194411   -0.0079882021          0.4918
C342       C   -0.0198668456   -0.3396176154   -0.0080782593          0.4916
C343       C    0.0039642417   -0.3239947416   -0.0002498257          0.4909
C344       C    0.0262605748   -0.3426216619    0.0078728242          0.4902
C345       C    0.0237608831   -0.3727715690    0.0078028845          0.4904
C346       C    0.0037672662   -0.2935154949   -0.0011357641          0.4907
H347       H   -0.0392275595   -0.3277961474   -0.0151118504          0.4921
H348       H   -0.0427563954   -0.3779262015   -0.0150543086         -0.5076
H349       H    0.0425266924   -0.3856395875    0.0144864672          0.4898
C350       C    0.0566273926   -0.3333379883    0.0180104241          0.4892
C351       C    0.0033832714   -0.2653719637   -0.0016256578          0.4909
C352       C    0.0029253887   -0.2329044034   -0.0018599218          0.4913
C353       C    0.0623380293   -0.3013289213    0.0259718741         -0.5062
H354       H    0.0463875841   -0.2935735414    0.0418527897         -0.4905
H355       H    0.0839972202   -0.2993260095    0.0355998679         -0.5053
H356       H    0.0617933798   -0.2876387475    0.0065190011          0.4803
H357       H    0.0723389284   -0.3398207128    0.0013094450           0.473
H358       H    0.0620177419   -0.3460747374    0.0374489047         -0.4987
C359       C    0.0016956496   -0.2048436528   -0.0014134859         -0.5076
C360       C   -0.0036429098   -0.1700186482    0.0017946378         -0.5034
C361       C    0.0186360773   -0.1423099155    0.0006852600          0.4901
C362       C   -0.0000000000   -0.1116849037    0.0000000000         -0.5048
N363       N   -0.0233971005   -0.1236026275   -0.0194497318          0.4877
N364       N   -0.0268298294   -0.1562139488   -0.0165809409          0.4902
H365       H   -0.0471672208   -0.1597599451   -0.0083637547         -0.4985
H366       H   -0.0176928482   -0.1208731000   -0.0407275828          0.4711
H367       H    0.0334432476   -0.1427462653    0.0193314561         -0.5007
H368       H   -0.0095927160   -0.1090289880    0.0216728373         -0.4868
H369       H    0.0318661242   -0.1438589086   -0.0190646005          0.4725
H370       H   -0.0122772374   -0.1687482625    0.0239824991         -0.4853
C309       C    0.0000000000    0.3883150963    0.0000000000          0.4912
C310       C    0.0229490065    0.3694194411   -0.0032126887          0.4918
C311       C    0.0211250309    0.3396176154   -0.0036990402          0.4916
C312       C   -0.0038219993    0.3239947416   -0.0010816407          0.4909
C313       C   -0.0273310658    0.3426216619    0.0021475548          0.4902
C314       C   -0.0248730131    0.3727715690    0.0026072578          0.4904
C315       C   -0.0034423131    0.2935154949   -0.0019059734          0.4907
H316       H    0.0415346646    0.3277961474   -0.0064839097          0.4921
H317       H    0.0449717047    0.3779262015   -0.0056821937         -0.5076
H318       H   -0.0446272282    0.3856395875    0.0051756927          0.4898
C319       C   -0.0591541415    0.3333379883    0.0056413219          0.4892
C320       C   -0.0029634935    0.2653719637   -0.0023036915          0.4909
C321       C   -0.0024664558    0.2329044034   -0.0024359401          0.4913
C322       C   -0.0664177692    0.3013289213    0.0122167132         -0.5062
H323       H   -0.0541821703    0.2935735414    0.0311087831         -0.4905
H324       H   -0.0896220793    0.2993260095    0.0170518768         -0.5053
H325       H   -0.0617759575    0.2876387475   -0.0066820829          0.4803
H326       H   -0.0709829829    0.3398207128   -0.0140018340           0.473
H327       H   -0.0685292532    0.3460747374    0.0235023878         -0.4987
C328       C   -0.0013587802    0.2048436528   -0.0017397949         -0.5076
C329       C    0.0031815751    0.1700186482    0.0025237070         -0.5034
C330       C   -0.0183602547    0.1423099155   -0.0032671096          0.4901
C331       C    0.0000000000    0.1116849037    0.0000000000         -0.5048
N332       N    0.0269778576    0.1236026275   -0.0140681050          0.4877
N333       N    0.0297270785    0.1562139488   -0.0105388878          0.4902
H334       H    0.0478695938    0.1597599451    0.0017891603         -0.4985
H335       H    0.0258973245    0.1208731000   -0.0360707841          0.4711
H336       H   -0.0367722941    0.1427462653    0.0118302322         -0.5007
H337       H    0.0047977992    0.1090289880    0.0232101961         -0.4868
H338       H   -0.0271195286    0.1438589086   -0.0253661197          0.4725
H339       H    0.0069338153    0.1687482625    0.0260348425         -0.4853
C278       C   -0.3883150963   -0.0000000000    0.0000000000          0.4912
C279       C   -0.3694194411   -0.0179946628   -0.0146003554          0.4918
C280       C   -0.3396176154   -0.0171071094   -0.0129343201          0.4916
C281       C   -0.3239947416    0.0018140506    0.0035336731          0.4909
C282       C   -0.3426216619    0.0202025782    0.0185325385          0.4902
C283       C   -0.3727715690    0.0188632831    0.0164207528          0.4904
C284       C   -0.2935154949    0.0009521069    0.0038178196          0.4907
H285       H   -0.3277961474   -0.0330576950   -0.0259684087          0.4921
H286       H   -0.3779262015   -0.0348141266   -0.0290296081         -0.5076
H287       H   -0.3856395875    0.0342087235    0.0291228524          0.4898
C288       C   -0.3333379883    0.0444522621    0.0394339113          0.4892
C289       C   -0.2653719637    0.0003347134    0.0037386168          0.4909
C290       C   -0.2329044034   -0.0001008711    0.0034651166          0.4913
C291       C   -0.3013289213    0.0542146323    0.0402658886         -0.5062
H292       H   -0.2935735414    0.0596959334    0.0184352788         -0.4905
H293       H   -0.2993260095    0.0735704012    0.0539470079         -0.5053
H294       H   -0.2876387475    0.0372232318    0.0497528911          0.4803
H295       H   -0.3398207128    0.0381441535    0.0614789295           0.473
H296       H   -0.3460747374    0.0639110654    0.0341173928         -0.4987
C297       C   -0.2048436528   -0.0003466357    0.0021801408         -0.5076
C298       C   -0.1700186482   -0.0003224054   -0.0040481566         -0.5034
C299       C   -0.1423099155    0.0101256711    0.0156602600          0.4901
C300       C   -0.1116849037   -0.0000000000    0.0000000000         -0.5048
N301       N   -0.1236026275   -0.0286833535   -0.0101479857          0.4877
N302       N   -0.1562139488   -0.0279753552   -0.0145652617          0.4902
H303       H   -0.1597599451   -0.0313232482   -0.0362429749         -0.4985
H304       H   -0.1208731000   -0.0440448089    0.0056416035          0.4711
H305       H   -0.1427462653    0.0337228146    0.0188395271         -0.5007
H306       H   -0.1090289880    0.0137108967   -0.0193324439         -0.4868
H307       H   -0.1438589086   -0.0000717358    0.0371335928          0.4725
H308       H   -0.1687482625    0.0143214188   -0.0228207753         -0.4853
C247       C    0.3883150963   -0.0000000000    0.0000000000          0.4912
C248       C    0.3694194411    0.0000206639   -0.0231727823          0.4918
C249       C    0.3396176154    0.0007536446   -0.0214331950          0.4916
C250       C    0.3239947416    0.0015978369    0.0036365564          0.4909
C251       C    0.3426216619    0.0016379761    0.0273663330          0.4902
C252       C    0.3727715690    0.0008440409    0.0249950429          0.4904
C253       C    0.2935154949    0.0023620059    0.0031469322          0.4907
H254       H    0.3277961474    0.0007003855   -0.0420318796          0.4921
H255       H    0.3779262015   -0.0005671646   -0.0453257088         -0.5076
H256       H    0.3856395875    0.0010213824    0.0449147423          0.4898
C257       C    0.3333379883    0.0025613821    0.0593672998          0.4892
C258       C    0.2653719637    0.0026899712    0.0026178891          0.4909
C259       C    0.2329044034    0.0027524883    0.0021073719          0.4913
C260       C    0.3013289213   -0.0029507011    0.0674674848         -0.5062
H261       H    0.2935735414   -0.0233481982    0.0579510622         -0.4905
H262       H    0.2993260095   -0.0045432013    0.0911166446         -0.5053
H263       H    0.2876387475    0.0151284701    0.0602664795          0.4803
H264       H    0.3398207128    0.0236467704    0.0683773754           0.473
H265       H    0.3460747374   -0.0138379056    0.0711135230         -0.4987
C266       C    0.2048436528    0.0019103897    0.0011061560         -0.5076
C267       C    0.1700186482   -0.0029379314   -0.0028035827         -0.5034
C268       C    0.1423099155    0.0057652216    0.0177351397          0.4901
C269       C    0.1116849037   -0.0000000000    0.0000000000         -0.5048
N270       N    0.1236026275    0.0102175807   -0.0286586361          0.4877
N271       N    0.1562139488    0.0063432856   -0.0308954702          0.4902
H272       H    0.1597599451   -0.0083664923   -0.0471667353         -0.4985
H273       H    0.1208731000    0.0321593378   -0.0306194362          0.4711
H274       H    0.1427462653   -0.0066517879    0.0380514090         -0.5007
H275       H    0.1090289880   -0.0236498424   -0.0015546811         -0.4868
H276       H    0.1438589086    0.0288601945    0.0233666009          0.4725
H277       H    0.1687482625   -0.0267418107   -0.0032812166         -0.4853
C216       C    0.0000000000    0.0000000000   -0.1116849037          0.4912
C217       C    0.0231664234   -0.0005432238   -0.1305805589          0.4918
C218       C    0.0214451874    0.0002318706   -0.1603823846          0.4916
C219       C   -0.0035965982    0.0016858550   -0.1760052584          0.4909
C220       C   -0.0273183714    0.0023034176   -0.1573783381          0.4902
C221       C   -0.0249671029    0.0014520151   -0.1272284310          0.4904
C222       C   -0.0030885238    0.0024378833   -0.2064845051          0.4907
H223       H    0.0420364766   -0.0003226168   -0.1722038526          0.4921
H224       H    0.0452984861   -0.0016699429   -0.1220737985         -0.5076
H225       H   -0.0448765884    0.0021140259   -0.1143604125          0.4898
C226       C   -0.0592873924    0.0040052551   -0.1666620117          0.4892
C227       C   -0.0025516567    0.0027528779   -0.2346280363          0.4909
C228       C   -0.0020397694    0.0028029536   -0.2670955966          0.4913
C229       C   -0.0675193087   -0.0013080878   -0.1986710787         -0.5062
H230       H   -0.0585020524   -0.0219311155   -0.2064264586         -0.4905
H231       H   -0.0912002173   -0.0023246427   -0.2006739905         -0.5053
H232       H   -0.0598805010    0.0165905023   -0.2123612525          0.4803
H233       H   -0.0677817126    0.0253036491   -0.1601792872           0.473
H234       H   -0.0714291942   -0.0121033465   -0.1539252626         -0.4987
C235       C   -0.0010593415    0.0019367410   -0.2951563472         -0.5076
C236       C    0.0027312615   -0.0030052832   -0.3299813518         -0.5034
C237       C   -0.0175895984    0.0061950776   -0.3576900845          0.4901
C238       C   -0.0000000000    0.0000000000   -0.3883150963         -0.5048
N239       N    0.0288987824    0.0095171820   -0.3763973725          0.4877
N240       N    0.0310406779    0.0055896034   -0.3437860512          0.4902
H241       H    0.0469491802   -0.0095117604   -0.3402400549         -0.4985
H242       H    0.0313929281    0.0314047281   -0.3791269000          0.4711
H243       H   -0.0382020048   -0.0057238832   -0.3572537347         -0.5007
H244       H    0.0009787305   -0.0236806707   -0.3909710120         -0.4868
H245       H   -0.0226574039    0.0294202466   -0.3561410914          0.4725
H246       H    0.0026295154   -0.0268137366   -0.3312517375         -0.4853
C185       C   -0.0000000000   -0.0000000000    0.1116849037          0.4912
C186       C    0.0035814834    0.0228943496    0.1305805589          0.4918
C187       C    0.0040384272    0.0210627855    0.1603823846          0.4916
C188       C    0.0010200112   -0.0038389064    0.1760052584          0.4909
C189       C   -0.0025869871   -0.0272929779    0.1573783381          0.4902
C190       C   -0.0030070848   -0.0248278475    0.1272284310          0.4904
C191       C    0.0018503458   -0.0034725315    0.2064845051          0.4907
H192       H    0.0071512925    0.0414249739    0.1722038526          0.4921
H193       H    0.0064049765    0.0448744675    0.1220737985         -0.5076
H194       H   -0.0058929990   -0.0445381843    0.1143604125          0.4898
C195       C   -0.0065922811   -0.0590557262    0.1666620117          0.4892
C196       C    0.0022557158   -0.0030001724    0.2346280363          0.4909
C197       C    0.0023959437   -0.0025053267    0.2670955966          0.4913
C198       C   -0.0132836808   -0.0662126269    0.1986710787         -0.5062
H199       H   -0.0319764557   -0.0536746705    0.2064264586         -0.4905
H200       H   -0.0184915365   -0.0893361443    0.2006739905         -0.5053
H201       H    0.0056873481   -0.0618754655    0.2123612525          0.4803
H202       H    0.0128580265   -0.0711990616    0.1601792872           0.473
H203       H   -0.0246018649   -0.0681422704    0.1539252626         -0.4987
C204       C    0.0017177093   -0.0013865947    0.2951563472         -0.5076
C205       C   -0.0024721942    0.0032217654    0.3299813518         -0.5034
C206       C    0.0029713015   -0.0184104407    0.3576900845          0.4901
C207       C    0.0000000000    0.0000000000    0.3883150963         -0.5048
N208       N    0.0145003120    0.0267480341    0.3763973725          0.4877
N209       N    0.0110157819    0.0295536783    0.3437860512          0.4902
H210       H   -0.0010187885    0.0478921829    0.3402400549         -0.4985
H211       H    0.0364827595    0.0253136552    0.3791269000          0.4711
H212       H   -0.0124203047   -0.0365772065    0.3572537347         -0.5007
H213       H   -0.0231300037    0.0051705907    0.3909710120         -0.4868
H214       H    0.0249265297   -0.0275241163    0.3561410914          0.4725
H215       H   -0.0259199197    0.0073517742    0.3312517375         -0.4853
loop_
_geom_bond_atom_site_label_1
_geom_bond_atom_site_label_2
_geom_bond_distance
_geom_bond_site_symmetry_2
_ccdc_geom_bond_type
Zn1          O5 1.942       .   S
Zn1          O6 1.922       .   S
Zn1         O10 1.922       .   S
Zn1         O17 1.922       .   S
Zn2          O5 1.942       .   S
Zn2          O7 1.922       .   S
Zn2          O9 1.922       .   S
Zn2         O13 1.922       .   S
Zn3          O5 1.942       .   S
Zn3          O8 1.922       .   S
Zn3         O11 1.922       .   S
Zn3         O14 1.922       .   S
Zn4          O5 1.942       .   S
Zn4         O12 1.922       .   S
Zn4         O15 1.922       .   S
Zn4         O16 1.922       .   S
O6          C18 1.304       .   A
O7          C19 1.304       .   A
O8          C20 1.304       .   A
O9          C18 1.304       .   A
O10         C20 1.304       .   A
O11         C19 1.304       .   A
O12         C21 1.304       .   A
O13         C22 1.304       .   A
O14         C21 1.304       .   A
O15         C22 1.304       .   A
O16         C23 1.304       .   A
O17         C23 1.304       .   A
C18        C185 1.540       .   S
C19        C269 1.540       .   S
C20        C362 1.540       .   S
C21        C216 1.540       .   S
C22        C331 1.540       .   S
C23        C300 1.540       .   S
Zn24        O28 1.942       .   S
Zn24        O29 1.922       .   S
Zn24        O33 1.922       .   S
Zn24        O40 1.922       .   S
Zn25        O28 1.942       .   S
Zn25        O30 1.922       .   S
Zn25        O32 1.922       .   S
Zn25        O36 1.922       .   S
Zn26        O28 1.942       .   S
Zn26        O31 1.922       .   S
Zn26        O34 1.922       .   S
Zn26        O37 1.922       .   S
Zn27        O28 1.942       .   S
Zn27        O35 1.922       .   S
Zn27        O38 1.922       .   S
Zn27        O39 1.922       .   S
O29         C41 1.304       .   A
O30         C42 1.304       .   A
O31         C43 1.304       .   A
O32         C41 1.304       .   A
O33         C43 1.304       .   A
O34         C42 1.304       .   A
O35         C44 1.304       .   A
O36         C45 1.304       .   A
O37         C44 1.304       .   A
O38         C45 1.304       .   A
O39         C46 1.304       .   A
O40         C46 1.304       .   A
C41        C464 1.540       .   S
C42        C371 1.540       .   S
C43        C207 1.540   1_655   S
C44        C433 1.540       .   S
C45        C238 1.540   1_656   S
C46        C424 1.540       .   S
Zn47        O51 1.942       .   S
Zn47        O52 1.922       .   S
Zn47        O56 1.922       .   S
Zn47        O63 1.922       .   S
Zn48        O51 1.942       .   S
Zn48        O53 1.922       .   S
Zn48        O55 1.922       .   S
Zn48        O59 1.922       .   S
Zn49        O51 1.942       .   S
Zn49        O54 1.922       .   S
Zn49        O57 1.922       .   S
Zn49        O60 1.922       .   S
Zn50        O51 1.942       .   S
Zn50        O58 1.922       .   S
Zn50        O61 1.922       .   S
Zn50        O62 1.922       .   S
O52         C64 1.304       .   A
O53         C65 1.304       .   A
O54         C66 1.304       .   A
O55         C64 1.304       .   A
O56         C66 1.304       .   A
O57         C65 1.304       .   A
O58         C67 1.304       .   A
O59         C68 1.304       .   A
O60         C67 1.304       .   A
O61         C68 1.304       .   A
O62         C69 1.304       .   A
O63         C69 1.304       .   A
C64        C309 1.540   1_655   S
C65        C495 1.540       .   S
C66        C557 1.540       .   S
C67        C340 1.540   1_665   S
C68        C588 1.540       .   S
C69        C526 1.540       .   S
Zn70        O74 1.942       .   S
Zn70        O75 1.922       .   S
Zn70        O79 1.922       .   S
Zn70        O86 1.922       .   S
Zn71        O74 1.942       .   S
Zn71        O76 1.922       .   S
Zn71        O78 1.922       .   S
Zn71        O82 1.922       .   S
Zn72        O74 1.942       .   S
Zn72        O77 1.922       .   S
Zn72        O80 1.922       .   S
Zn72        O83 1.922       .   S
Zn73        O74 1.942       .   S
Zn73        O81 1.922       .   S
Zn73        O84 1.922       .   S
Zn73        O85 1.922       .   S
O75         C87 1.304       .   A
O76         C88 1.304       .   A
O77         C89 1.304       .   A
O78         C87 1.304       .   A
O79         C89 1.304       .   A
O80         C88 1.304       .   A
O81         C90 1.304       .   A
O82         C91 1.304       .   A
O83         C90 1.304       .   A
O84         C91 1.304       .   A
O85         C92 1.304       .   A
O86         C92 1.304       .   A
C87        C486 1.540   1_565   S
C88        C619 1.540       .   S
C89        C548 1.540   1_556   S
C90        C455 1.540       .   S
C91        C517 1.540       .   S
C92        C650 1.540       .   S
Zn93        O97 1.942       .   S
Zn93        O98 1.922       .   S
Zn93       O102 1.922       .   S
Zn93       O109 1.922       .   S
Zn94        O97 1.942       .   S
Zn94        O99 1.922       .   S
Zn94       O101 1.922       .   S
Zn94       O105 1.922       .   S
Zn95        O97 1.942       .   S
Zn95       O100 1.922       .   S
Zn95       O103 1.922       .   S
Zn95       O106 1.922       .   S
Zn96        O97 1.942       .   S
Zn96       O104 1.922       .   S
Zn96       O107 1.922       .   S
Zn96       O108 1.922       .   S
O98        C110 1.304       .   A
O99        C111 1.304       .   A
O100       C112 1.304       .   A
O101       C110 1.304       .   A
O102       C112 1.304       .   A
O103       C111 1.304       .   A
O104       C113 1.304       .   A
O105       C114 1.304       .   A
O106       C113 1.304       .   A
O107       C114 1.304       .   A
O108       C115 1.304       .   A
O109       C115 1.304       .   A
C110       C247 1.540   1_565   S
C111       C703 1.540       .   S
C112       C774 1.540       .   S
C113       C278 1.540   1_665   S
C114       C765 1.540       .   S
C115       C734 1.540       .   S
Zn116      O120 1.942       .   S
Zn116      O121 1.922       .   S
Zn116      O125 1.922       .   S
Zn116      O132 1.922       .   S
Zn117      O120 1.942       .   S
Zn117      O122 1.922       .   S
Zn117      O124 1.922       .   S
Zn117      O128 1.922       .   S
Zn118      O120 1.942       .   S
Zn118      O123 1.922       .   S
Zn118      O126 1.922       .   S
Zn118      O129 1.922       .   S
Zn119      O120 1.942       .   S
Zn119      O127 1.922       .   S
Zn119      O130 1.922       .   S
Zn119      O131 1.922       .   S
O121       C133 1.304       .   A
O122       C134 1.304       .   A
O123       C135 1.304       .   A
O124       C133 1.304       .   A
O125       C135 1.304       .   A
O126       C134 1.304       .   A
O127       C136 1.304       .   A
O128       C137 1.304       .   A
O129       C136 1.304       .   A
O130       C137 1.304       .   A
O131       C138 1.304       .   A
O132       C138 1.304       .   A
C133       C393 1.540   1_465   S
C134       C681 1.540       .   S
C135       C827 1.540       .   S
C136       C402 1.540   1_565   S
C137       C836 1.540       .   S
C138       C712 1.540   1_556   S
Zn139      O143 1.942       .   S
Zn139      O144 1.922       .   S
Zn139      O148 1.922       .   S
Zn139      O155 1.922       .   S
Zn140      O143 1.942       .   S
Zn140      O145 1.922       .   S
Zn140      O147 1.922       .   S
Zn140      O151 1.922       .   S
Zn141      O143 1.942       .   S
Zn141      O146 1.922       .   S
Zn141      O149 1.922       .   S
Zn141      O152 1.922       .   S
Zn142      O143 1.942       .   S
Zn142      O150 1.922       .   S
Zn142      O153 1.922       .   S
Zn142      O154 1.922       .   S
O144       C156 1.304       .   A
O145       C157 1.304       .   A
O146       C158 1.304       .   A
O147       C156 1.304       .   A
O148       C158 1.304       .   A
O149       C157 1.304       .   A
O150       C159 1.304       .   A
O151       C160 1.304       .   A
O152       C159 1.304       .   A
O153       C160 1.304       .   A
O154       C161 1.304       .   A
O155       C161 1.304       .   A
C156       C867 1.540       .   S
C157       C796 1.540       .   S
C158       C610 1.540       .   S
C159       C920 1.540       .   S
C160       C579 1.540   1_455   S
C161       C743 1.540   1_545   S
Zn162      O166 1.942       .   S
Zn162      O167 1.922       .   S
Zn162      O171 1.922       .   S
Zn162      O178 1.922       .   S
Zn163      O166 1.942       .   S
Zn163      O168 1.922       .   S
Zn163      O170 1.922       .   S
Zn163      O174 1.922       .   S
Zn164      O166 1.942       .   S
Zn164      O169 1.922       .   S
Zn164      O172 1.922       .   S
Zn164      O175 1.922       .   S
Zn165      O166 1.942       .   S
Zn165      O173 1.922       .   S
Zn165      O176 1.922       .   S
Zn165      O177 1.922       .   S
O167       C179 1.304       .   A
O168       C180 1.304       .   A
O169       C181 1.304       .   A
O170       C179 1.304       .   A
O171       C181 1.304       .   A
O172       C180 1.304       .   A
O173       C182 1.304       .   A
O174       C183 1.304       .   A
O175       C182 1.304       .   A
O176       C183 1.304       .   A
O177       C184 1.304       .   A
O178       C184 1.304       .   A
C179       C641 1.540   1_455   S
C180       C805 1.540   1_545   S
C181       C889 1.540       .   S
C182       C672 1.540       .   S
C183       C898 1.540   1_556   S
C184       C858 1.540       .   S
C898       C899 0.023       .   A
C898       C903 0.022       .   A
C899       C900 0.023       .   A
C899       H906 0.018       .   A
C900       C901 0.022       .   A
C900       H905 0.018       .   A
C901       C902 0.023       .   A
C901       C904 0.023       .   A
C902       C903 0.023       .   A
C902       C908 0.025       .   A
C903       H907 0.018       .   A
C904       C909 0.021       .   A
C908       C911 0.025       .   A
C908       H915 0.018       .   A
C908       H916 0.018       .   A
C909       C910 0.025       .   A
C910       C917 0.021       .   A
C911       H912 0.018       .   A
C911       H913 0.018       .   A
C911       H914 0.018       .   A
C917       C918 0.027       .   A
C918       C919 0.027       .   A
C918       N922 0.025       .   A
C918       H928 0.018       .   A
C919       C920 0.027       .   A
C919       H925 0.018       .   A
C919       H927 0.018       .   A
C920       N921 0.025       .   A
C920       H926 0.018       .   A
N921       N922 0.025       .   A
N921       H924 0.017       .   A
N922       H923 0.017       .   A
C867       C868 0.023       .   A
C867       C872 0.022       .   A
C868       C869 0.023       .   A
C868       H875 0.018       .   A
C869       C870 0.022       .   A
C869       H874 0.018       .   A
C870       C871 0.023       .   A
C870       C873 0.023       .   A
C871       C872 0.023       .   A
C871       C877 0.025       .   A
C872       H876 0.018       .   A
C873       C878 0.021       .   A
C877       C880 0.025       .   A
C877       H884 0.018       .   A
C877       H885 0.018       .   A
C878       C879 0.025       .   A
C879       C886 0.021       .   A
C880       H881 0.018       .   A
C880       H882 0.018       .   A
C880       H883 0.018       .   A
C886       C887 0.027       .   A
C887       C888 0.027       .   A
C887       N891 0.025       .   A
C887       H897 0.018       .   A
C888       C889 0.027       .   A
C888       H894 0.018       .   A
C888       H896 0.018       .   A
C889       N890 0.025       .   A
C889       H895 0.018       .   A
N890       N891 0.025       .   A
N890       H893 0.017       .   A
N891       H892 0.017       .   A
C836       C837 0.023       .   A
C836       C841 0.022       .   A
C837       C838 0.023       .   A
C837       H844 0.018       .   A
C838       C839 0.022       .   A
C838       H843 0.018       .   A
C839       C840 0.023       .   A
C839       C842 0.023       .   A
C840       C841 0.023       .   A
C840       C846 0.025       .   A
C841       H845 0.018       .   A
C842       C847 0.021       .   A
C846       C849 0.025       .   A
C846       H853 0.018       .   A
C846       H854 0.018       .   A
C847       C848 0.025       .   A
C848       C855 0.021       .   A
C849       H850 0.018       .   A
C849       H851 0.018       .   A
C849       H852 0.018       .   A
C855       C856 0.027       .   A
C856       C857 0.027       .   A
C856       N860 0.025       .   A
C856       H866 0.018       .   A
C857       C858 0.027       .   A
C857       H863 0.018       .   A
C857       H865 0.018       .   A
C858       N859 0.025       .   A
C858       H864 0.018       .   A
N859       N860 0.025       .   A
N859       H862 0.017       .   A
N860       H861 0.017       .   A
C805       C806 0.023       .   A
C805       C810 0.022       .   A
C806       C807 0.023       .   A
C806       H813 0.018       .   A
C807       C808 0.022       .   A
C807       H812 0.018       .   A
C808       C809 0.023       .   A
C808       C811 0.023       .   A
C809       C810 0.023       .   A
C809       C815 0.025       .   A
C810       H814 0.018       .   A
C811       C816 0.021       .   A
C815       C818 0.025       .   A
C815       H822 0.018       .   A
C815       H823 0.018       .   A
C816       C817 0.025       .   A
C817       C824 0.021       .   A
C818       H819 0.018       .   A
C818       H820 0.018       .   A
C818       H821 0.018       .   A
C824       C825 0.027       .   A
C825       C826 0.027       .   A
C825       N829 0.025       .   A
C825       H835 0.018       .   A
C826       C827 0.027       .   A
C826       H832 0.018       .   A
C826       H834 0.018       .   A
C827       N828 0.025       .   A
C827       H833 0.018       .   A
N828       N829 0.025       .   A
N828       H831 0.017       .   A
N829       H830 0.017       .   A
C774       C775 0.023       .   A
C774       C779 0.022       .   A
C775       C776 0.023       .   A
C775       H782 0.018       .   A
C776       C777 0.022       .   A
C776       H781 0.018       .   A
C777       C778 0.023       .   A
C777       C780 0.023       .   A
C778       C779 0.023       .   A
C778       C784 0.025       .   A
C779       H783 0.018       .   A
C780       C785 0.021       .   A
C784       C787 0.025       .   A
C784       H791 0.018       .   A
C784       H792 0.018       .   A
C785       C786 0.025       .   A
C786       C793 0.021       .   A
C787       H788 0.018       .   A
C787       H789 0.018       .   A
C787       H790 0.018       .   A
C793       C794 0.027       .   A
C794       C795 0.027       .   A
C794       N798 0.025       .   A
C794       H804 0.018       .   A
C795       C796 0.027       .   A
C795       H801 0.018       .   A
C795       H803 0.018       .   A
C796       N797 0.025       .   A
C796       H802 0.018       .   A
N797       N798 0.025       .   A
N797       H800 0.017       .   A
N798       H799 0.017       .   A
C743       C744 0.023       .   A
C743       C748 0.022       .   A
C744       C745 0.023       .   A
C744       H751 0.018       .   A
C745       C746 0.022       .   A
C745       H750 0.018       .   A
C746       C747 0.023       .   A
C746       C749 0.023       .   A
C747       C748 0.023       .   A
C747       C753 0.025       .   A
C748       H752 0.018       .   A
C749       C754 0.021       .   A
C753       C756 0.025       .   A
C753       H760 0.018       .   A
C753       H761 0.018       .   A
C754       C755 0.025       .   A
C755       C762 0.021       .   A
C756       H757 0.018       .   A
C756       H758 0.018       .   A
C756       H759 0.018       .   A
C762       C763 0.027       .   A
C763       C764 0.027       .   A
C763       N767 0.025       .   A
C763       H773 0.018       .   A
C764       C765 0.027       .   A
C764       H770 0.018       .   A
C764       H772 0.018       .   A
C765       N766 0.025       .   A
C765       H771 0.018       .   A
N766       N767 0.025       .   A
N766       H769 0.017       .   A
N767       H768 0.017       .   A
C712       C713 0.023       .   A
C712       C717 0.022       .   A
C713       C714 0.023       .   A
C713       H720 0.018       .   A
C714       C715 0.022       .   A
C714       H719 0.018       .   A
C715       C716 0.023       .   A
C715       C718 0.023       .   A
C716       C717 0.023       .   A
C716       C722 0.025       .   A
C717       H721 0.018       .   A
C718       C723 0.021       .   A
C722       C725 0.025       .   A
C722       H729 0.018       .   A
C722       H730 0.018       .   A
C723       C724 0.025       .   A
C724       C731 0.021       .   A
C725       H726 0.018       .   A
C725       H727 0.018       .   A
C725       H728 0.018       .   A
C731       C732 0.027       .   A
C732       C733 0.027       .   A
C732       N736 0.025       .   A
C732       H742 0.018       .   A
C733       C734 0.027       .   A
C733       H739 0.018       .   A
C733       H741 0.018       .   A
C734       N735 0.025       .   A
C734       H740 0.018       .   A
N735       N736 0.025       .   A
N735       H738 0.017       .   A
N736       H737 0.017       .   A
C681       C682 0.023       .   A
C681       C686 0.022       .   A
C682       C683 0.023       .   A
C682       H689 0.018       .   A
C683       C684 0.022       .   A
C683       H688 0.018       .   A
C684       C685 0.023       .   A
C684       C687 0.023       .   A
C685       C686 0.023       .   A
C685       C691 0.025       .   A
C686       H690 0.018       .   A
C687       C692 0.021       .   A
C691       C694 0.025       .   A
C691       H698 0.018       .   A
C691       H699 0.018       .   A
C692       C693 0.025       .   A
C693       C700 0.021       .   A
C694       H695 0.018       .   A
C694       H696 0.018       .   A
C694       H697 0.018       .   A
C700       C701 0.027       .   A
C701       C702 0.027       .   A
C701       N705 0.025       .   A
C701       H711 0.018       .   A
C702       C703 0.027       .   A
C702       H708 0.018       .   A
C702       H710 0.018       .   A
C703       N704 0.025       .   A
C703       H709 0.018       .   A
N704       N705 0.025       .   A
N704       H707 0.017       .   A
N705       H706 0.017       .   A
C650       C651 0.023       .   A
C650       C655 0.022       .   A
C651       C652 0.023       .   A
C651       H658 0.018       .   A
C652       C653 0.022       .   A
C652       H657 0.018       .   A
C653       C654 0.023       .   A
C653       C656 0.023       .   A
C654       C655 0.023       .   A
C654       C660 0.025       .   A
C655       H659 0.018       .   A
C656       C661 0.021       .   A
C660       C663 0.025       .   A
C660       H667 0.018       .   A
C660       H668 0.018       .   A
C661       C662 0.025       .   A
C662       C669 0.021       .   A
C663       H664 0.018       .   A
C663       H665 0.018       .   A
C663       H666 0.018       .   A
C669       C670 0.027       .   A
C670       C671 0.027       .   A
C670       N674 0.025       .   A
C670       H680 0.018       .   A
C671       C672 0.027       .   A
C671       H677 0.018       .   A
C671       H679 0.018       .   A
C672       N673 0.025       .   A
C672       H678 0.018       .   A
N673       N674 0.025       .   A
N673       H676 0.017       .   A
N674       H675 0.017       .   A
C619       C620 0.023       .   A
C619       C624 0.022       .   A
C620       C621 0.023       .   A
C620       H627 0.018       .   A
C621       C622 0.022       .   A
C621       H626 0.018       .   A
C622       C623 0.023       .   A
C622       C625 0.023       .   A
C623       C624 0.023       .   A
C623       C629 0.025       .   A
C624       H628 0.018       .   A
C625       C630 0.021       .   A
C629       C632 0.025       .   A
C629       H636 0.018       .   A
C629       H637 0.018       .   A
C630       C631 0.025       .   A
C631       C638 0.021       .   A
C632       H633 0.018       .   A
C632       H634 0.018       .   A
C632       H635 0.018       .   A
C638       C639 0.027       .   A
C639       C640 0.027       .   A
C639       N643 0.025       .   A
C639       H649 0.018       .   A
C640       C641 0.027       .   A
C640       H646 0.018       .   A
C640       H648 0.018       .   A
C641       N642 0.025       .   A
C641       H647 0.018       .   A
N642       N643 0.025       .   A
N642       H645 0.017       .   A
N643       H644 0.017       .   A
C588       C589 0.023       .   A
C588       C593 0.022       .   A
C589       C590 0.023       .   A
C589       H596 0.018       .   A
C590       C591 0.022       .   A
C590       H595 0.018       .   A
C591       C592 0.023       .   A
C591       C594 0.023       .   A
C592       C593 0.023       .   A
C592       C598 0.025       .   A
C593       H597 0.018       .   A
C594       C599 0.021       .   A
C598       C601 0.025       .   A
C598       H605 0.018       .   A
C598       H606 0.018       .   A
C599       C600 0.025       .   A
C600       C607 0.021       .   A
C601       H602 0.018       .   A
C601       H603 0.018       .   A
C601       H604 0.018       .   A
C607       C608 0.027       .   A
C608       C609 0.027       .   A
C608       N612 0.025       .   A
C608       H618 0.018       .   A
C609       C610 0.027       .   A
C609       H615 0.018       .   A
C609       H617 0.018       .   A
C610       N611 0.025       .   A
C610       H616 0.018       .   A
N611       N612 0.025       .   A
N611       H614 0.017       .   A
N612       H613 0.017       .   A
C557       C558 0.023       .   A
C557       C562 0.022       .   A
C558       C559 0.023       .   A
C558       H565 0.018       .   A
C559       C560 0.022       .   A
C559       H564 0.018       .   A
C560       C561 0.023       .   A
C560       C563 0.023       .   A
C561       C562 0.023       .   A
C561       C567 0.025       .   A
C562       H566 0.018       .   A
C563       C568 0.021       .   A
C567       C570 0.025       .   A
C567       H574 0.018       .   A
C567       H575 0.018       .   A
C568       C569 0.025       .   A
C569       C576 0.021       .   A
C570       H571 0.018       .   A
C570       H572 0.018       .   A
C570       H573 0.018       .   A
C576       C577 0.027       .   A
C577       C578 0.027       .   A
C577       N581 0.025       .   A
C577       H587 0.018       .   A
C578       C579 0.027       .   A
C578       H584 0.018       .   A
C578       H586 0.018       .   A
C579       N580 0.025       .   A
C579       H585 0.018       .   A
N580       N581 0.025       .   A
N580       H583 0.017       .   A
N581       H582 0.017       .   A
C526       C527 0.023       .   A
C526       C531 0.022       .   A
C527       C528 0.023       .   A
C527       H534 0.018       .   A
C528       C529 0.022       .   A
C528       H533 0.018       .   A
C529       C530 0.023       .   A
C529       C532 0.023       .   A
C530       C531 0.023       .   A
C530       C536 0.025       .   A
C531       H535 0.018       .   A
C532       C537 0.021       .   A
C536       C539 0.025       .   A
C536       H543 0.018       .   A
C536       H544 0.018       .   A
C537       C538 0.025       .   A
C538       C545 0.021       .   A
C539       H540 0.018       .   A
C539       H541 0.018       .   A
C539       H542 0.018       .   A
C545       C546 0.027       .   A
C546       C547 0.027       .   A
C546       N550 0.025       .   A
C546       H556 0.018       .   A
C547       C548 0.027       .   A
C547       H553 0.018       .   A
C547       H555 0.018       .   A
C548       N549 0.025       .   A
C548       H554 0.018       .   A
N549       N550 0.025       .   A
N549       H552 0.017       .   A
N550       H551 0.017       .   A
C495       C496 0.023       .   A
C495       C500 0.022       .   A
C496       C497 0.023       .   A
C496       H503 0.018       .   A
C497       C498 0.022       .   A
C497       H502 0.018       .   A
C498       C499 0.023       .   A
C498       C501 0.023       .   A
C499       C500 0.023       .   A
C499       C505 0.025       .   A
C500       H504 0.018       .   A
C501       C506 0.021       .   A
C505       C508 0.025       .   A
C505       H512 0.018       .   A
C505       H513 0.018       .   A
C506       C507 0.025       .   A
C507       C514 0.021       .   A
C508       H509 0.018       .   A
C508       H510 0.018       .   A
C508       H511 0.018       .   A
C514       C515 0.027       .   A
C515       C516 0.027       .   A
C515       N519 0.025       .   A
C515       H525 0.018       .   A
C516       C517 0.027       .   A
C516       H522 0.018       .   A
C516       H524 0.018       .   A
C517       N518 0.025       .   A
C517       H523 0.018       .   A
N518       N519 0.025       .   A
N518       H521 0.017       .   A
N519       H520 0.017       .   A
C464       C465 0.023       .   A
C464       C469 0.022       .   A
C465       C466 0.023       .   A
C465       H472 0.018       .   A
C466       C467 0.022       .   A
C466       H471 0.018       .   A
C467       C468 0.023       .   A
C467       C470 0.023       .   A
C468       C469 0.023       .   A
C468       C474 0.025       .   A
C469       H473 0.018       .   A
C470       C475 0.021       .   A
C474       C477 0.025       .   A
C474       H481 0.018       .   A
C474       H482 0.018       .   A
C475       C476 0.025       .   A
C476       C483 0.021       .   A
C477       H478 0.018       .   A
C477       H479 0.018       .   A
C477       H480 0.018       .   A
C483       C484 0.027       .   A
C484       C485 0.027       .   A
C484       N488 0.025       .   A
C484       H494 0.018       .   A
C485       C486 0.027       .   A
C485       H491 0.018       .   A
C485       H493 0.018       .   A
C486       N487 0.025       .   A
C486       H492 0.018       .   A
N487       N488 0.025       .   A
N487       H490 0.017       .   A
N488       H489 0.017       .   A
C433       C434 0.023       .   A
C433       C438 0.022       .   A
C434       C435 0.023       .   A
C434       H441 0.018       .   A
C435       C436 0.022       .   A
C435       H440 0.018       .   A
C436       C437 0.023       .   A
C436       C439 0.023       .   A
C437       C438 0.023       .   A
C437       C443 0.025       .   A
C438       H442 0.018       .   A
C439       C444 0.021       .   A
C443       C446 0.025       .   A
C443       H450 0.018       .   A
C443       H451 0.018       .   A
C444       C445 0.025       .   A
C445       C452 0.021       .   A
C446       H447 0.018       .   A
C446       H448 0.018       .   A
C446       H449 0.018       .   A
C452       C453 0.027       .   A
C453       C454 0.027       .   A
C453       N457 0.025       .   A
C453       H463 0.018       .   A
C454       C455 0.027       .   A
C454       H460 0.018       .   A
C454       H462 0.018       .   A
C455       N456 0.025       .   A
C455       H461 0.018       .   A
N456       N457 0.025       .   A
N456       H459 0.017       .   A
N457       H458 0.017       .   A
C402       C403 0.023       .   A
C402       C407 0.022       .   A
C403       C404 0.023       .   A
C403       H410 0.018       .   A
C404       C405 0.022       .   A
C404       H409 0.018       .   A
C405       C406 0.023       .   A
C405       C408 0.023       .   A
C406       C407 0.023       .   A
C406       C412 0.025       .   A
C407       H411 0.018       .   A
C408       C413 0.021       .   A
C412       C415 0.025       .   A
C412       H419 0.018       .   A
C412       H420 0.018       .   A
C413       C414 0.025       .   A
C414       C421 0.021       .   A
C415       H416 0.018       .   A
C415       H417 0.018       .   A
C415       H418 0.018       .   A
C421       C422 0.027       .   A
C422       C423 0.027       .   A
C422       N426 0.025       .   A
C422       H432 0.018       .   A
C423       C424 0.027       .   A
C423       H429 0.018       .   A
C423       H431 0.018       .   A
C424       N425 0.025       .   A
C424       H430 0.018       .   A
N425       N426 0.025       .   A
N425       H428 0.017       .   A
N426       H427 0.017       .   A
C371       C372 0.023       .   A
C371       C376 0.022       .   A
C372       C373 0.023       .   A
C372       H379 0.018       .   A
C373       C374 0.022       .   A
C373       H378 0.018       .   A
C374       C375 0.023       .   A
C374       C377 0.023       .   A
C375       C376 0.023       .   A
C375       C381 0.025       .   A
C376       H380 0.018       .   A
C377       C382 0.021       .   A
C381       C384 0.025       .   A
C381       H388 0.018       .   A
C381       H389 0.018       .   A
C382       C383 0.025       .   A
C383       C390 0.021       .   A
C384       H385 0.018       .   A
C384       H386 0.018       .   A
C384       H387 0.018       .   A
C390       C391 0.027       .   A
C391       C392 0.027       .   A
C391       N395 0.025       .   A
C391       H401 0.018       .   A
C392       C393 0.027       .   A
C392       H398 0.018       .   A
C392       H400 0.018       .   A
C393       N394 0.025       .   A
C393       H399 0.018       .   A
N394       N395 0.025       .   A
N394       H397 0.017       .   A
N395       H396 0.017       .   A
C340       C341 0.023       .   A
C340       C345 0.022       .   A
C341       C342 0.023       .   A
C341       H348 0.018       .   A
C342       C343 0.022       .   A
C342       H347 0.018       .   A
C343       C344 0.023       .   A
C343       C346 0.023       .   A
C344       C345 0.023       .   A
C344       C350 0.025       .   A
C345       H349 0.018       .   A
C346       C351 0.021       .   A
C350       C353 0.025       .   A
C350       H357 0.018       .   A
C350       H358 0.018       .   A
C351       C352 0.025       .   A
C352       C359 0.021       .   A
C353       H354 0.018       .   A
C353       H355 0.018       .   A
C353       H356 0.018       .   A
C359       C360 0.027       .   A
C360       C361 0.027       .   A
C360       N364 0.025       .   A
C360       H370 0.018       .   A
C361       C362 0.027       .   A
C361       H367 0.018       .   A
C361       H369 0.018       .   A
C362       N363 0.025       .   A
C362       H368 0.018       .   A
N363       N364 0.025       .   A
N363       H366 0.017       .   A
N364       H365 0.017       .   A
C309       C310 0.023       .   A
C309       C314 0.022       .   A
C310       C311 0.023       .   A
C310       H317 0.018       .   A
C311       C312 0.022       .   A
C311       H316 0.018       .   A
C312       C313 0.023       .   A
C312       C315 0.023       .   A
C313       C314 0.023       .   A
C313       C319 0.025       .   A
C314       H318 0.018       .   A
C315       C320 0.021       .   A
C319       C322 0.025       .   A
C319       H326 0.018       .   A
C319       H327 0.018       .   A
C320       C321 0.025       .   A
C321       C328 0.021       .   A
C322       H323 0.018       .   A
C322       H324 0.018       .   A
C322       H325 0.018       .   A
C328       C329 0.027       .   A
C329       C330 0.027       .   A
C329       N333 0.025       .   A
C329       H339 0.018       .   A
C330       C331 0.027       .   A
C330       H336 0.018       .   A
C330       H338 0.018       .   A
C331       N332 0.025       .   A
C331       H337 0.018       .   A
N332       N333 0.025       .   A
N332       H335 0.017       .   A
N333       H334 0.017       .   A
C278       C279 0.023       .   A
C278       C283 0.022       .   A
C279       C280 0.023       .   A
C279       H286 0.018       .   A
C280       C281 0.022       .   A
C280       H285 0.018       .   A
C281       C282 0.023       .   A
C281       C284 0.023       .   A
C282       C283 0.023       .   A
C282       C288 0.025       .   A
C283       H287 0.018       .   A
C284       C289 0.021       .   A
C288       C291 0.025       .   A
C288       H295 0.018       .   A
C288       H296 0.018       .   A
C289       C290 0.025       .   A
C290       C297 0.021       .   A
C291       H292 0.018       .   A
C291       H293 0.018       .   A
C291       H294 0.018       .   A
C297       C298 0.027       .   A
C298       C299 0.027       .   A
C298       N302 0.025       .   A
C298       H308 0.018       .   A
C299       C300 0.027       .   A
C299       H305 0.018       .   A
C299       H307 0.018       .   A
C300       N301 0.025       .   A
C300       H306 0.018       .   A
N301       N302 0.025       .   A
N301       H304 0.017       .   A
N302       H303 0.017       .   A
C247       C248 0.023       .   A
C247       C252 0.022       .   A
C248       C249 0.023       .   A
C248       H255 0.018       .   A
C249       C250 0.022       .   A
C249       H254 0.018       .   A
C250       C251 0.023       .   A
C250       C253 0.023       .   A
C251       C252 0.023       .   A
C251       C257 0.025       .   A
C252       H256 0.018       .   A
C253       C258 0.021       .   A
C257       C260 0.025       .   A
C257       H264 0.018       .   A
C257       H265 0.018       .   A
C258       C259 0.025       .   A
C259       C266 0.021       .   A
C260       H261 0.018       .   A
C260       H262 0.018       .   A
C260       H263 0.018       .   A
C266       C267 0.027       .   A
C267       C268 0.027       .   A
C267       N271 0.025       .   A
C267       H277 0.018       .   A
C268       C269 0.027       .   A
C268       H274 0.018       .   A
C268       H276 0.018       .   A
C269       N270 0.025       .   A
C269       H275 0.018       .   A
N270       N271 0.025       .   A
N270       H273 0.017       .   A
N271       H272 0.017       .   A
C216       C217 0.023       .   A
C216       C221 0.022       .   A
C217       C218 0.023       .   A
C217       H224 0.018       .   A
C218       C219 0.022       .   A
C218       H223 0.018       .   A
C219       C220 0.023       .   A
C219       C222 0.023       .   A
C220       C221 0.023       .   A
C220       C226 0.025       .   A
C221       H225 0.018       .   A
C222       C227 0.021       .   A
C226       C229 0.025       .   A
C226       H233 0.018       .   A
C226       H234 0.018       .   A
C227       C228 0.025       .   A
C228       C235 0.021       .   A
C229       H230 0.018       .   A
C229       H231 0.018       .   A
C229       H232 0.018       .   A
C235       C236 0.027       .   A
C236       C237 0.027       .   A
C236       N240 0.025       .   A
C236       H246 0.018       .   A
C237       C238 0.027       .   A
C237       H243 0.018       .   A
C237       H245 0.018       .   A
C238       N239 0.025       .   A
C238       H244 0.018       .   A
N239       N240 0.025       .   A
N239       H242 0.017       .   A
N240       H241 0.017       .   A
C185       C186 0.023       .   A
C185       C190 0.022       .   A
C186       C187 0.023       .   A
C186       H193 0.018       .   A
C187       C188 0.022       .   A
C187       H192 0.018       .   A
C188       C189 0.023       .   A
C188       C191 0.023       .   A
C189       C190 0.023       .   A
C189       C195 0.025       .   A
C190       H194 0.018       .   A
C191       C196 0.021       .   A
C195       C198 0.025       .   A
C195       H202 0.018       .   A
C195       H203 0.018       .   A
C196       C197 0.025       .   A
C197       C204 0.021       .   A
C198       H199 0.018       .   A
C198       H200 0.018       .   A
C198       H201 0.018       .   A
C204       C205 0.027       .   A
C205       C206 0.027       .   A
C205       N209 0.025       .   A
C205       H215 0.018       .   A
C206       C207 0.027       .   A
C206       H212 0.018       .   A
C206       H214 0.018       .   A
C207       N208 0.025       .   A
C207       H213 0.018       .   A
N208       N209 0.025       .   A
N208       H211 0.017       .   A
N209       H210 0.017       .   A
