data_pcu_v1-6c_Zn_1_Ch_1-94_fer_tobacco
_audit_creation_date              2021-02-03
_audit_creation_method            'tobacco_3.0'
_symmetry_space_group_name_H-M    'P1'
_symmetry_Int_Tables_number       1
_symmetry_cell_setting            triclinic
loop_
_symmetry_equiv_pos_as_xyz
  x,y,z
_cell_length_a                    26.443191227914223
_cell_length_b                    26.443191227914223
_cell_length_c                    26.443191227914223
_cell_angle_alpha                 90.0
_cell_angle_beta                  90.0
_cell_angle_gamma                 90.0
loop_
_atom_site_label
_atom_site_type_symbol
_atom_site_fract_x
_atom_site_fract_y
_atom_site_fract_z
_atom_site_charge
Zn1       Zn   -0.0424003287   -0.0424003287    0.0424003287          1.4972
Zn2       Zn    0.0424003287    0.0424003287    0.0424003287          1.4936
Zn3       Zn    0.0424003287   -0.0424003287   -0.0424003287          1.4911
Zn4       Zn   -0.0424003287    0.0424003287   -0.0424003287          1.4948
O5         O    0.0000000000    0.0000000000    0.0000000000          -2.305
O6         O   -0.0311611406   -0.0311611406    0.1133221771         -1.2113
O7         O    0.1133221771    0.0311611406    0.0311611406         -1.2095
O8         O    0.0311611406   -0.1133221771   -0.0311611406         -1.2047
O9         O    0.0311611406    0.0311611406    0.1133221771         -1.2114
O10        O   -0.0311611406   -0.1133221771    0.0311611406         -1.2074
O11        O    0.1133221771   -0.0311611406   -0.0311611406         -1.2133
O12        O   -0.0311611406    0.0311611406   -0.1133221771         -1.2072
O13        O    0.0311611406    0.1133221771    0.0311611406         -1.2147
O14        O    0.0311611406   -0.0311611406   -0.1133221771         -1.2086
O15        O   -0.0311611406    0.1133221771   -0.0311611406         -1.2133
O16        O   -0.1133221771    0.0311611406   -0.0311611406         -1.2124
O17        O   -0.1133221771   -0.0311611406    0.0311611406         -1.2103
C18        C   -0.0000000000   -0.0000000000    0.1354904546          0.3076
C19        C    0.1354904546   -0.0000000000   -0.0000000000          0.3125
C20        C   -0.0000000000   -0.1354904546    0.0000000000          0.3021
C21        C    0.0000000000    0.0000000000   -0.1354904546          0.3059
C22        C    0.0000000000    0.1354904546   -0.0000000000          0.3172
C23        C   -0.1354904546    0.0000000000    0.0000000000          0.3077
Zn24      Zn    0.9575996713    0.0424003287    0.4575996713          1.4972
Zn25      Zn    1.0424003287   -0.0424003287    0.4575996713          1.4936
Zn26      Zn    1.0424003287    0.0424003287    0.5424003287          1.4911
Zn27      Zn    0.9575996713   -0.0424003287    0.5424003287          1.4948
O28        O    1.0000000000    0.0000000000    0.5000000000          -2.305
O29        O    0.9688388594    0.0311611406    0.3866778229         -1.2113
O30        O    1.1133221771   -0.0311611406    0.4688388594         -1.2095
O31        O    1.0311611406    0.1133221771    0.5311611406         -1.2047
O32        O    1.0311611406   -0.0311611406    0.3866778229         -1.2114
O33        O    0.9688388594    0.1133221771    0.4688388594         -1.2074
O34        O    1.1133221771    0.0311611406    0.5311611406         -1.2133
O35        O    0.9688388594   -0.0311611406    0.6133221771         -1.2072
O36        O    1.0311611406   -0.1133221771    0.4688388594         -1.2147
O37        O    1.0311611406    0.0311611406    0.6133221771         -1.2086
O38        O    0.9688388594   -0.1133221771    0.5311611406         -1.2133
O39        O    0.8866778229   -0.0311611406    0.5311611406         -1.2124
O40        O    0.8866778229    0.0311611406    0.4688388594         -1.2103
C41        C    1.0000000000    0.0000000000    0.3645095454          0.3076
C42        C    1.1354904546    0.0000000000    0.5000000000          0.3125
C43        C    1.0000000000    0.1354904546    0.5000000000          0.3021
C44        C    1.0000000000    0.0000000000    0.6354904546          0.3059
C45        C    1.0000000000   -0.1354904546    0.5000000000          0.3172
C46        C    0.8645095454    0.0000000000    0.5000000000          0.3077
Zn47      Zn    1.0424003287    0.4575996713   -0.0424003287          1.4972
Zn48      Zn    0.9575996713    0.4575996713    0.0424003287          1.4936
Zn49      Zn    1.0424003287    0.5424003287    0.0424003287          1.4911
Zn50      Zn    0.9575996713    0.5424003287   -0.0424003287          1.4948
O51        O    1.0000000000    0.5000000000    0.0000000000          -2.305
O52        O    1.0311611406    0.3866778229   -0.0311611406         -1.2113
O53        O    0.9688388594    0.4688388594    0.1133221771         -1.2095
O54        O    1.1133221771    0.5311611406    0.0311611406         -1.2047
O55        O    0.9688388594    0.3866778229    0.0311611406         -1.2114
O56        O    1.1133221771    0.4688388594   -0.0311611406         -1.2074
O57        O    1.0311611406    0.5311611406    0.1133221771         -1.2133
O58        O    0.9688388594    0.6133221771   -0.0311611406         -1.2072
O59        O    0.8866778229    0.4688388594    0.0311611406         -1.2147
O60        O    1.0311611406    0.6133221771    0.0311611406         -1.2086
O61        O    0.8866778229    0.5311611406   -0.0311611406         -1.2133
O62        O    0.9688388594    0.5311611406   -0.1133221771         -1.2124
O63        O    1.0311611406    0.4688388594   -0.1133221771         -1.2103
C64        C    1.0000000000    0.3645095454    0.0000000000          0.3076
C65        C    1.0000000000    0.5000000000    0.1354904546          0.3125
C66        C    1.1354904546    0.5000000000    0.0000000000          0.3021
C67        C    1.0000000000    0.6354904546    0.0000000000          0.3059
C68        C    0.8645095454    0.5000000000    0.0000000000          0.3172
C69        C    1.0000000000    0.5000000000   -0.1354904546          0.3077
Zn70      Zn    0.9575996713    0.4575996713    0.5424003287          1.4972
Zn71      Zn    1.0424003287    0.4575996713    0.4575996713          1.4936
Zn72      Zn    0.9575996713    0.5424003287    0.4575996713          1.4911
Zn73      Zn    1.0424003287    0.5424003287    0.5424003287          1.4948
O74        O    1.0000000000    0.5000000000    0.5000000000          -2.305
O75        O    0.9688388594    0.3866778229    0.5311611406         -1.2113
O76        O    1.0311611406    0.4688388594    0.3866778229         -1.2095
O77        O    0.8866778229    0.5311611406    0.4688388594         -1.2047
O78        O    1.0311611406    0.3866778229    0.4688388594         -1.2114
O79        O    0.8866778229    0.4688388594    0.5311611406         -1.2074
O80        O    0.9688388594    0.5311611406    0.3866778229         -1.2133
O81        O    1.0311611406    0.6133221771    0.5311611406         -1.2072
O82        O    1.1133221771    0.4688388594    0.4688388594         -1.2147
O83        O    0.9688388594    0.6133221771    0.4688388594         -1.2086
O84        O    1.1133221771    0.5311611406    0.5311611406         -1.2133
O85        O    1.0311611406    0.5311611406    0.6133221771         -1.2124
O86        O    0.9688388594    0.4688388594    0.6133221771         -1.2103
C87        C    1.0000000000    0.3645095454    0.5000000000          0.3076
C88        C    1.0000000000    0.5000000000    0.3645095454          0.3125
C89        C    0.8645095454    0.5000000000    0.5000000000          0.3021
C90        C    1.0000000000    0.6354904546    0.5000000000          0.3059
C91        C    1.1354904546    0.5000000000    0.5000000000          0.3172
C92        C    1.0000000000    0.5000000000    0.6354904546          0.3077
Zn93      Zn    0.5424003287    1.0424003287   -0.0424003287          1.4972
Zn94      Zn    0.4575996713    1.0424003287    0.0424003287          1.4936
Zn95      Zn    0.4575996713    0.9575996713   -0.0424003287          1.4911
Zn96      Zn    0.5424003287    0.9575996713    0.0424003287          1.4948
O97        O    0.5000000000    1.0000000000    0.0000000000          -2.305
O98        O    0.5311611406    1.1133221771   -0.0311611406         -1.2113
O99        O    0.3866778229    1.0311611406    0.0311611406         -1.2095
O100       O    0.4688388594    0.9688388594   -0.1133221771         -1.2047
O101       O    0.4688388594    1.1133221771    0.0311611406         -1.2114
O102       O    0.5311611406    1.0311611406   -0.1133221771         -1.2074
O103       O    0.3866778229    0.9688388594   -0.0311611406         -1.2133
O104       O    0.5311611406    0.8866778229    0.0311611406         -1.2072
O105       O    0.4688388594    1.0311611406    0.1133221771         -1.2147
O106       O    0.4688388594    0.8866778229   -0.0311611406         -1.2086
O107       O    0.5311611406    0.9688388594    0.1133221771         -1.2133
O108       O    0.6133221771    0.9688388594    0.0311611406         -1.2124
O109       O    0.6133221771    1.0311611406   -0.0311611406         -1.2103
C110       C    0.5000000000    1.1354904546    0.0000000000          0.3076
C111       C    0.3645095454    1.0000000000    0.0000000000          0.3125
C112       C    0.5000000000    1.0000000000   -0.1354904546          0.3021
C113       C    0.5000000000    0.8645095454    0.0000000000          0.3059
C114       C    0.5000000000    1.0000000000    0.1354904546          0.3172
C115       C    0.6354904546    1.0000000000    0.0000000000          0.3077
Zn116     Zn    0.4575996713    1.0424003287    0.4575996713          1.4972
Zn117     Zn    0.4575996713    0.9575996713    0.5424003287          1.4936
Zn118     Zn    0.5424003287    0.9575996713    0.4575996713          1.4911
Zn119     Zn    0.5424003287    1.0424003287    0.5424003287          1.4948
O120       O    0.5000000000    1.0000000000    0.5000000000          -2.305
O121       O    0.3866778229    1.0311611406    0.4688388594         -1.2113
O122       O    0.4688388594    0.8866778229    0.5311611406         -1.2095
O123       O    0.5311611406    0.9688388594    0.3866778229         -1.2047
O124       O    0.3866778229    0.9688388594    0.5311611406         -1.2114
O125       O    0.4688388594    1.0311611406    0.3866778229         -1.2074
O126       O    0.5311611406    0.8866778229    0.4688388594         -1.2133
O127       O    0.6133221771    1.0311611406    0.5311611406         -1.2072
O128       O    0.4688388594    0.9688388594    0.6133221771         -1.2147
O129       O    0.6133221771    0.9688388594    0.4688388594         -1.2086
O130       O    0.5311611406    1.0311611406    0.6133221771         -1.2133
O131       O    0.5311611406    1.1133221771    0.5311611406         -1.2124
O132       O    0.4688388594    1.1133221771    0.4688388594         -1.2103
C133       C    0.3645095454    1.0000000000    0.5000000000          0.3076
C134       C    0.5000000000    0.8645095454    0.5000000000          0.3125
C135       C    0.5000000000    1.0000000000    0.3645095454          0.3021
C136       C    0.6354904546    1.0000000000    0.5000000000          0.3059
C137       C    0.5000000000    1.0000000000    0.6354904546          0.3172
C138       C    0.5000000000    1.1354904546    0.5000000000          0.3077
Zn139     Zn    0.4575996713    0.4575996713   -0.0424003287          1.4972
Zn140     Zn    0.4575996713    0.5424003287    0.0424003287          1.4936
Zn141     Zn    0.5424003287    0.4575996713    0.0424003287          1.4911
Zn142     Zn    0.5424003287    0.5424003287   -0.0424003287          1.4948
O143       O    0.5000000000    0.5000000000    0.0000000000          -2.305
O144       O    0.3866778229    0.4688388594   -0.0311611406         -1.2113
O145       O    0.4688388594    0.5311611406    0.1133221771         -1.2095
O146       O    0.5311611406    0.3866778229    0.0311611406         -1.2047
O147       O    0.3866778229    0.5311611406    0.0311611406         -1.2114
O148       O    0.4688388594    0.3866778229   -0.0311611406         -1.2074
O149       O    0.5311611406    0.4688388594    0.1133221771         -1.2133
O150       O    0.6133221771    0.5311611406   -0.0311611406         -1.2072
O151       O    0.4688388594    0.6133221771    0.0311611406         -1.2147
O152       O    0.6133221771    0.4688388594    0.0311611406         -1.2086
O153       O    0.5311611406    0.6133221771   -0.0311611406         -1.2133
O154       O    0.5311611406    0.5311611406   -0.1133221771         -1.2124
O155       O    0.4688388594    0.4688388594   -0.1133221771         -1.2103
C156       C    0.3645095454    0.5000000000    0.0000000000          0.3076
C157       C    0.5000000000    0.5000000000    0.1354904546          0.3125
C158       C    0.5000000000    0.3645095454    0.0000000000          0.3021
C159       C    0.6354904546    0.5000000000    0.0000000000          0.3059
C160       C    0.5000000000    0.6354904546    0.0000000000          0.3172
C161       C    0.5000000000    0.5000000000   -0.1354904546          0.3077
Zn162     Zn    0.4575996713    0.5424003287    0.4575996713          1.4972
Zn163     Zn    0.4575996713    0.4575996713    0.5424003287          1.4936
Zn164     Zn    0.5424003287    0.4575996713    0.4575996713          1.4911
Zn165     Zn    0.5424003287    0.5424003287    0.5424003287          1.4948
O166       O    0.5000000000    0.5000000000    0.5000000000          -2.305
O167       O    0.3866778229    0.5311611406    0.4688388594         -1.2113
O168       O    0.4688388594    0.3866778229    0.5311611406         -1.2095
O169       O    0.5311611406    0.4688388594    0.3866778229         -1.2047
O170       O    0.3866778229    0.4688388594    0.5311611406         -1.2114
O171       O    0.4688388594    0.5311611406    0.3866778229         -1.2074
O172       O    0.5311611406    0.3866778229    0.4688388594         -1.2133
O173       O    0.6133221771    0.5311611406    0.5311611406         -1.2072
O174       O    0.4688388594    0.4688388594    0.6133221771         -1.2147
O175       O    0.6133221771    0.4688388594    0.4688388594         -1.2086
O176       O    0.5311611406    0.5311611406    0.6133221771         -1.2133
O177       O    0.5311611406    0.6133221771    0.5311611406         -1.2124
O178       O    0.4688388594    0.6133221771    0.4688388594         -1.2103
C179       C    0.3645095454    0.5000000000    0.5000000000          0.3076
C180       C    0.5000000000    0.3645095454    0.5000000000          0.3125
C181       C    0.5000000000    0.5000000000    0.3645095454          0.3021
C182       C    0.6354904546    0.5000000000    0.5000000000          0.3059
C183       C    0.5000000000    0.5000000000    0.6354904546          0.3172
C184       C    0.5000000000    0.6354904546    0.5000000000          0.3077
C530       C    0.5000000000    0.5000000000   -0.1937285086          0.5278
C531       C    0.5429272020    0.5040037589   -0.2238308666          0.5243
C532       C    0.5434433586    0.5043409332   -0.2772532042          0.5253
C533       C    0.5000000000    0.5000000000   -0.3062714914          0.5304
C534       C    0.4606126422    0.4977984959   -0.2756764518          0.5321
C535       C    0.4605612206    0.4994509548   -0.2248098974          0.5294
C536       C    0.5955395756    0.5043476143   -0.3029374957          0.5253
Br537     Br    0.6078484820    0.5046344509   -0.1920763662          0.5223
O538       O    0.4214654330    0.4858130577   -0.1998410683         -0.4582
O539       O    0.4184152582    0.4797666026   -0.2891572465         -0.4504
H540       H    0.4252429295    0.4705794000   -0.2523036060         -0.4429
H541       H    0.6161038118    0.5391661045   -0.2945472275          0.4927
H542       H    0.6181152769    0.4722188014   -0.2900676455         -0.4455
H543       H    0.5955146911    0.5005465936   -0.3436690051          0.5298
H544       H    0.4518888373    0.4686495615   -0.1882265161         -0.4429
C515       C    0.5000000000    0.5000000000    0.1937285086          0.5278
C516       C    0.4570707929    0.5039822028    0.2238308666          0.5243
C517       C    0.4565544671    0.5043191178    0.2772532042          0.5253
C518       C    0.5000000000    0.5000000000    0.3062714914          0.5304
C519       C    0.5393884584    0.4978182743    0.2756764518          0.5321
C520       C    0.5394390501    0.4994707588    0.2248098974          0.5294
C521       C    0.4044582533    0.5042996392    0.3029374957          0.5253
Br522     Br    0.3921492045    0.5045802948    0.1920763662          0.5223
O523       O    0.5785416810    0.4858524952    0.1998410683         -0.4582
O524       O    0.5815948916    0.4798075725    0.2891572465         -0.4504
H525       H    0.5747718344    0.4706169425    0.2523036060         -0.4429
H526       H    0.3838765358    0.5391077988    0.2945472275          0.4927
H527       H    0.3818986881    0.4721594941    0.2900676455         -0.4455
H528       H    0.4044850465    0.5004986314    0.3436690051          0.5298
H529       H    0.5481268990    0.4686737242    0.1882265161         -0.4429
C500       C    0.5000000000    0.8062714914    0.5000000000          0.5278
C501       C    0.5102680840    0.7761691334    0.5418729174          0.5243
C502       C    0.5106774430    0.7227467958    0.5423339263          0.5253
C503       C    0.5000000000    0.6937285086    0.5000000000          0.5304
C504       C    0.4920347575    0.7243235482    0.4613636765          0.5321
C505       C    0.4936617234    0.7751901026    0.4610699985          0.5294
C506       C    0.5183391451    0.6970625043    0.5938636672          0.5253
Br507     Br    0.5204315565    0.8079236338    0.6059968146          0.5223
O508       O    0.4744270715    0.8001589317    0.4244025604         -0.4582
O509       O    0.4679980525    0.7108427535    0.4222739695         -0.4504
H510       H    0.4599138430    0.7476963940    0.4303775086         -0.4429
H511       H    0.5558014258    0.7054527725    0.6090884033          0.4927
H512       H    0.4898763904    0.7099323545    0.6209153678         -0.4455
H513       H    0.5145757271    0.6563309949    0.5943975803          0.5298
H514       H    0.4619203407    0.8117734839    0.4570177535         -0.4429
C485       C    0.5000000000    1.1937285086    0.5000000000          0.5278
C486       C    0.5430521680    1.2238308666    0.4977009597          0.5243
C487       C    0.5436119764    1.2772532042    0.4979592593          0.5253
C488       C    0.5000000000    1.3062714914    0.5000000000          0.5304
C489       C    0.4607126546    1.2756764518    0.5035658196          0.5321
C490       C    0.4609027580    1.2248098974    0.5052081123          0.5294
C491       C    0.5951522551    1.3029374957    0.4903687689          0.5253
Br492     Br    0.6073714071    1.1920763662    0.4888575528          0.5223
O493       O    0.4202361167    1.1998410683    0.4974172757         -0.4582
O494       O    0.4163368045    1.2891572465    0.4918802594         -0.4504
H495       H    0.4217517338    1.2523036060    0.4817956013         -0.4429
H496       H    0.6205741775    1.2945472275    0.5218162001          0.4927
H497       H    0.6128013318    1.2900676455    0.4552912405         -0.4455
H498       H    0.5945733404    1.3436690051    0.4866120102          0.5298
H499       H    0.4478313698    1.1882265161    0.4760006668         -0.4429
C470       C    0.5000000000    0.8062714914    0.0000000000          0.5278
C471       C    0.5241814350    0.7761691334   -0.0356935983          0.5243
C472       C    0.5242489913    0.7227467958   -0.0363064117          0.5253
C473       C    0.5000000000    0.6937285086    0.0000000000          0.5304
C474       C    0.4766757989    0.7243235482    0.0318149685          0.5321
C475       C    0.4753670434    0.7751901026    0.0308048083          0.5294
C476       C    0.5573425290    0.6970625043   -0.0765411434          0.5253
Br477     Br    0.5649413377    0.8079236338   -0.0862287415          0.5223
O478       O    0.4610596630    0.8001589317    0.0696605893          -0.451
O479       O    0.4637910517    0.7108427535    0.0758575806         -0.4504
H480       H    0.4752236028    0.7476963940    0.0764219957         -0.4429
H481       H    0.5435197327    0.7054527725   -0.1145430562          0.4927
H482       H    0.5964966980    0.7099323545   -0.0735622248         -0.4455
H483       H    0.5602619975    0.6563309949   -0.0741069945          0.5298
H484       H    0.4936430433    0.8117734839    0.0570712105         -0.4429
C455       C    0.5000000000    1.3062714914    0.0000000000          0.5278
C456       C    0.4769150490    1.2761691334   -0.0364123578          0.5243
C457       C    0.4763800500    1.2227467958   -0.0367187563          0.5253
C458       C    0.5000000000    1.1937285086    0.0000000000          0.5304
C459       C    0.5198702136    1.2243235482    0.0340791020          0.5321
C460       C    0.5184218418    1.2751901026    0.0348762744          0.5294
C461       C    0.4526859168    1.1970625043   -0.0831149192          0.5253
Br462     Br    0.4468335800    1.3079236338   -0.0939473522          0.5223
O463       O    0.5483452368    1.3001589317    0.0634955559         -0.4582
O464       O    0.5551173942    1.2108427535    0.0634628499         -0.4504
H465       H    0.5601953778    1.2476963940    0.0532043963         -0.4429
H466       H    0.4123244545    1.2054527725   -0.0855983503          0.4927
H467       H    0.4710360765    1.2099323545   -0.1178308312         -0.4455
H468       H    0.4560825894    1.1563309949   -0.0848210824          0.5298
H469       H    0.5497982665    1.3117734839    0.0285948706         -0.4429
C440       C    0.5000000000    1.0000000000   -0.1937285086          0.5278
C441       C    0.5429216912    1.0040624112   -0.2238308666          0.5243
C442       C    0.5434373866    1.0044002905   -0.2772532042          0.5253
C443       C    0.5000000000    1.0000000000   -0.3062714914          0.5304
C444       C    0.4606156871    0.9977446788   -0.2756764518          0.5321
C445       C    0.4605620077    0.9993970658   -0.2248098974          0.5294
C446       C    0.5955335458    1.0044781563   -0.3029374957          0.5253
Br447     Br    0.6078420488    1.0047818115   -0.1920763662          0.5223
O448       O    0.4214848915    0.9857057607   -0.1998410683         -0.4582
O449       O    0.4184429814    0.9796551435   -0.2891572465         -0.4504
H450       H    0.4252831998    0.9704772788   -0.2523036060         -0.4429
H451       H    0.6160501865    1.0393247131   -0.2945472275          0.4927
H452       H    0.6181531271    0.9723802210   -0.2900676455         -0.4455
H453       H    0.5955138551    1.0006771051   -0.3436690051          0.5298
H454       H    0.4519317197    0.9685838513   -0.1882265161         -0.4429
C425       C    0.5000000000    1.0000000000    0.1937285086          0.5278
C426       C    0.5429292071    0.9960177972    0.2238308666          0.5243
C427       C    0.5434455329    0.9956808822    0.2772532042          0.5253
C428       C    0.5000000000    1.0000000000    0.3062714914          0.5304
C429       C    0.4606115416    1.0021817257    0.2756764518          0.5321
C430       C    0.4605609499    1.0005292412    0.2248098974          0.5294
C431       C    0.5955417467    0.9957003608    0.3029374957          0.5253
Br432     Br    0.6078507955    0.9954197052    0.1920763662          0.5223
O433       O    0.4214583190    1.0141475048    0.1998410683         -0.4582
O434       O    0.4184051084    1.0201924275    0.2891572465         -0.4504
H435       H    0.4252281656    1.0293830575    0.2523036060         -0.4429
H436       H    0.6161234642    0.9608922012    0.2945472275          0.4927
H437       H    0.6181013119    1.0278405059    0.2900676455         -0.4455
H438       H    0.5955149535    0.9995013686    0.3436690051          0.5298
H439       H    0.4518731010    1.0313262758    0.1882265161         -0.4429
C410       C    0.8062714914    0.5000000000    0.5000000000          0.5278
C411       C    0.7761691334    0.4663477100    0.5269499190          0.5243
C412       C    0.7227467958    0.4657422324    0.5270661129          0.5253
C413       C    0.6937285086    0.5000000000    0.5000000000          0.5304
C414       C    0.7243235482    0.5298543418    0.4742137856          0.5321
C415       C    0.7751901026    0.5287430644    0.4729897239          0.5294
C416       C    0.6970625043    0.4282737218    0.5632617837          0.5253
Br417     Br    0.8079236338    0.4192227218    0.5716086903          0.5223
O418       O    0.8001589317    0.5663346189    0.4556303497         -0.4582
O419       O    0.7108427535    0.5727296302    0.4578590300         -0.4504
H420       H    0.7476963940    0.5742036361    0.4692102015         -0.4429
H421       H    0.7054527725    0.3892908197    0.5525124391          0.4927
H422       H    0.7099323545    0.4343644752    0.6020538658         -0.4455
H423       H    0.6563309949    0.4309328598    0.5659779139          0.5298
H424       H    0.8117734839    0.5563828085    0.4891136380         -0.4429
C395       C    1.3062714914    0.5000000000    0.5000000000          0.5278
C396       C    1.2761691334    0.4660704395    0.5265999941          0.5243
C397       C    1.2227467958    0.4654637912    0.5267099118          0.5253
C398       C    1.1937285086    0.5000000000    0.5000000000          0.5304
C399       C    1.2243235482    0.5301197654    0.4745243192          0.5321
C400       C    1.2751901026    0.5290212231    0.4732888155          0.5294
C401       C    1.1970625043    0.4276224721    0.5625156439          0.5253
Br402     Br    1.3079236338    0.4184855226    0.5707683770          0.5223
O403       O    1.3001589317    0.5667905238    0.4563196443         -0.4582
O404       O    1.2108427535    0.5731621135    0.4586144275         -0.4504
H405       H    1.2476963940    0.5745184954    0.4699802542         -0.4429
H406       H    1.2054527725    0.3887529730    0.5513631954          0.4927
H407       H    1.2099323545    0.4333111949    0.6013687176         -0.4455
H408       H    1.1563309949    0.4302533411    0.5652591646          0.5298
H409       H    1.3117734839    0.5564925170    0.4896980833         -0.4429
C380       C    0.8062714914    0.5000000000    0.0000000000          0.5278
C381       C    0.7761691334    0.4689902232   -0.0299527712          0.5243
C382       C    0.7227467958    0.4687979916   -0.0305385622          0.5253
C383       C    0.6937285086    0.5000000000    0.0000000000          0.5304
C384       C    0.7243235482    0.5293726436    0.0263335981          0.5321
C385       C    0.7751901026    0.5304454835    0.0250757114          0.5294
C386       C    0.6970625043    0.4281322991   -0.0631010763          0.5253
Br387     Br    0.8079236338    0.4187023827   -0.0710173966          0.5223
O388       O    0.8001589317    0.5524433848    0.0601551240         -0.4582
O389       O    0.7108427535    0.5510458546    0.0667815932         -0.4504
H390       H    0.7476963940    0.5399742064    0.0696868289         -0.4429
H391       H    0.7054527725    0.4338381108   -0.1031342972          0.4927
H392       H    0.7099323545    0.3904294053   -0.0521277126         -0.4455
H393       H    0.6563309949    0.4257762947   -0.0601181882          0.5298
H394       H    0.8117734839    0.5179665455    0.0545411515         -0.4429
C365       C    1.3062714914    0.5000000000    0.0000000000          0.5278
C366       C    1.2761691334    0.5348665014    0.0253594527          0.5243
C367       C    1.2227467958    0.5351381678    0.0259128977          0.5253
C368       C    1.1937285086    0.5000000000    0.0000000000          0.5304
C369       C    1.2243235482    0.4672570523   -0.0220024989          0.5321
C370       C    1.2751901026    0.4663691609   -0.0206078973          0.5294
C371       C    1.1970625043    0.5799293248    0.0525168097          0.5253
Br372     Br    1.3079236338    0.5903666050    0.0590478611          0.5223
O373       O    1.3001589317    0.4397158657   -0.0522950351         -0.4582
O374       O    1.2108427535    0.4401802633   -0.0590513300         -0.4504
H375       H    1.2476963940    0.4507415933   -0.0634649562         -0.4429
H376       H    1.2054527725    0.5798344628    0.0929544910          0.4927
H377       H    1.2099323545    0.6157445228    0.0364172910         -0.4455
H378       H    1.1563309949    0.5818485715    0.0492358236          0.5298
H379       H    1.3117734839    0.4746381864   -0.0515200192         -0.4429
C350       C    1.0000000000    0.5000000000   -0.1937285086          0.5278
C351       C    0.9570707929    0.4960177972   -0.2238308666          0.5243
C352       C    0.9565544671    0.4956808822   -0.2772532042          0.5253
C353       C    1.0000000000    0.5000000000   -0.3062714914          0.5304
C354       C    1.0393884584    0.5021817257   -0.2756764518          0.5321
C355       C    1.0394390501    0.5005292412   -0.2248098974          0.5294
C356       C    0.9044582533    0.4957003608   -0.3029374957          0.5253
Br357     Br    0.8921492045    0.4954197052   -0.1920763662          0.5223
O358       O    1.0785416810    0.5141475048   -0.1998410683         -0.4582
O359       O    1.0815948916    0.5201924275   -0.2891572465         -0.4504
H360       H    1.0747718344    0.5293830575   -0.2523036060         -0.4429
H361       H    0.8838765358    0.4608922012   -0.2945472275          0.4927
H362       H    0.8818986881    0.5278405059   -0.2900676455         -0.4455
H363       H    0.9044850465    0.4995013686   -0.3436690051          0.5298
H364       H    1.0481268990    0.5313262758   -0.1882265161         -0.4429
C335       C    1.0000000000    0.5000000000    0.1937285086          0.5278
C336       C    0.9570707929    0.5039822028    0.2238308666          0.5243
C337       C    0.9565544671    0.5043191178    0.2772532042          0.5253
C338       C    1.0000000000    0.5000000000    0.3062714914          0.5304
C339       C    1.0393884584    0.4978182743    0.2756764518          0.5321
C340       C    1.0394390501    0.4994707588    0.2248098974          0.5294
C341       C    0.9044582533    0.5042996392    0.3029374957          0.5253
Br342     Br    0.8921492045    0.5045802948    0.1920763662          0.5223
O343       O    1.0785416810    0.4858524952    0.1998410683         -0.4582
O344       O    1.0815948916    0.4798075725    0.2891572465         -0.4504
H345       H    1.0747718344    0.4706169425    0.2523036060         -0.4429
H346       H    0.8838765358    0.5391077988    0.2945472275          0.4927
H347       H    0.8818986881    0.4721594941    0.2900676455         -0.4455
H348       H    0.9044850465    0.5004986314    0.3436690051          0.5298
H349       H    1.0481268990    0.4686737242    0.1882265161         -0.4429
C320       C    1.0000000000   -0.1937285086    0.5000000000          0.5278
C321       C    1.0430313104   -0.2238308666    0.4973389694          0.5243
C322       C    1.0435577463   -0.2772532042    0.4970180812          0.5253
C323       C    1.0000000000   -0.3062714914    0.5000000000          0.5304
C324       C    0.9605630978   -0.2756764518    0.5009702175          0.5321
C325       C    0.9605633137   -0.2248098974    0.4993169587          0.5294
C326       C    1.0956287548   -0.3029374957    0.4986385604          0.5253
Br327     Br    1.1079406147   -0.1920763662    0.4987363164          0.5223
O328       O    0.9210606387   -0.1998410683    0.5117270962         -0.4582
O329       O    0.9178230989   -0.2891572465    0.5176753330         -0.4504
H330       H    0.9243604889   -0.2523036060    0.5270713067         -0.4429
H331       H    1.1172704678   -0.2945472275    0.4644793548          0.4927
H332       H    1.1171899402   -0.2900676455    0.5314568205         -0.4455
H333       H    1.0954851625   -0.3436690051    0.5024369494          0.5298
H334       H    0.9509331204   -0.1882265161    0.5298324537         -0.4429
C305       C    1.0000000000    0.1937285086    0.5000000000          0.5278
C306       C    0.9569686896    0.2238308666    0.4973389694          0.5243
C307       C    0.9564422537    0.2772532042    0.4970180812          0.5253
C308       C    1.0000000000    0.3062714914    0.5000000000          0.5304
C309       C    1.0394369022    0.2756764518    0.5009702175          0.5321
C310       C    1.0394366863    0.2248098974    0.4993169587          0.5294
C311       C    0.9043712452    0.3029374957    0.4986385604          0.5253
Br312     Br    0.8920593853    0.1920763662    0.4987363164          0.5223
O313       O    1.0789393613    0.1998410683    0.5117270962         -0.4582
O314       O    1.0821769011    0.2891572465    0.5176753330         -0.4504
H315       H    1.0756395111    0.2523036060    0.5270713067         -0.4429
H316       H    0.8827295322    0.2945472275    0.4644793548          0.4927
H317       H    0.8828100598    0.2900676455    0.5314568205         -0.4455
H318       H    0.9045148375    0.3436690051    0.5024369494          0.5298
H319       H    1.0490668796    0.1882265161    0.5298324537         -0.4429
C290       C    0.8062714914   -0.0000000000    0.5000000000          0.5278
C291       C    0.7761691334    0.0292660602    0.5316586873          0.5243
C292       C    0.7227467958    0.0294248526    0.5322544129          0.5253
C293       C    0.6937285086   -0.0000000000    0.5000000000          0.5304
C294       C    0.7243235482   -0.0278362419    0.4720472861          0.5321
C295       C    0.7751901026   -0.0289785086    0.4732424813          0.5294
C296       C    0.6970625043    0.0681837695    0.5670647884          0.5253
Br297     Br    0.8079236338    0.0771508575    0.5755017774          0.5223
O298       O    0.8001589317   -0.0489571641    0.4369750556         -0.4582
O299       O    0.7108427535   -0.0471870889    0.4304382353         -0.4504
H300       H    0.7476963940   -0.0359688478    0.4281638442         -0.4429
H301       H    0.7054527725    0.0602228784    0.6067112167          0.4927
H302       H    0.7099323545    0.1064469474    0.5582414031         -0.4455
H303       H    0.6563309949    0.0707047098    0.5642199267          0.5298
H304       H    0.8117734839   -0.0148530291    0.4445299946         -0.4429
C275       C    1.3062714914   -0.0000000000    0.5000000000          0.5278
C276       C    1.2761691334    0.0424696145    0.5074233824          0.5243
C277       C    1.2227467958    0.0429571580    0.5078007488          0.5253
C278       C    1.1937285086   -0.0000000000    0.5000000000          0.5304
C279       C    1.2243235482   -0.0390852121    0.4946561464          0.5321
C280       C    1.2751901026   -0.0392685990    0.4962992026          0.5294
C281       C    1.1970625043    0.0948860341    0.5119730027          0.5253
Br282     Br    1.3079236338    0.1071325933    0.5132431363          0.5223
O283       O    1.3001589317   -0.0771487247    0.4795788881         -0.4582
O284       O    1.2108427535   -0.0797056609    0.4733079023         -0.4504
H285       H    1.2476963940   -0.0721652458    0.4646960542         -0.4429
H286       H    1.2054527725    0.1126003522    0.5483243163          0.4927
H287       H    1.2099323545    0.1199584583    0.4817522076         -0.4455
H288       H    1.1563309949    0.0951651575    0.5081821627          0.5298
H289       H    1.3117734839   -0.0454503463    0.4649029917         -0.4429
C260       C   -0.0000000000   -0.1937285086    0.0000000000          0.5278
C261       C    0.0430967127   -0.2238308666    0.0012033744          0.5243
C262       C    0.0436497708   -0.2772532042    0.0009309210          0.5253
C263       C   -0.0000000000   -0.3062714914    0.0000000000          0.5304
C264       C   -0.0393653252   -0.2756764518   -0.0025654926          0.5321
C265       C   -0.0392170508   -0.2248098974   -0.0042120889          0.5294
C266       C    0.0953664233   -0.3029374957    0.0072081605          0.5253
Br267     Br    0.1076200569   -0.1920763662    0.0084081247          0.5223
O268       O   -0.0796723981   -0.1998410683    0.0046104801         -0.4582
O269       O   -0.0834296291   -0.2891572465    0.0102448746         -0.4504
H270       H   -0.0777599737   -0.2523036060    0.0201885558         -0.4429
H271       H    0.1199803374   -0.2945472275   -0.0248756407          0.4927
H272       H    0.1139018989   -0.2900676455    0.0418254835         -0.4455
H273       H    0.0948832394   -0.3436690051    0.0109784272          0.5298
H274       H   -0.0515413939   -0.1882265161    0.0253183467         -0.4429
C245       C    0.0000000000    0.1937285086    0.0000000000          0.5278
C246       C    0.0039596250    0.2238308666   -0.0429312954          0.5243
C247       C    0.0042962685    0.2772532042   -0.0434477984          0.5253
C248       C    0.0000000000    0.3062714914    0.0000000000          0.5304
C249       C   -0.0021610103    0.2756764518    0.0393896003          0.5321
C250       C   -0.0005084995    0.2248098974    0.0394393230          0.5294
C251       C    0.0042493915    0.3029374957   -0.0955439948          0.5253
Br252     Br    0.0045235736    0.1920763662   -0.1078531895          0.5223
O253       O   -0.0141061965    0.1998410683    0.0785491105         -0.4582
O254       O   -0.0201495126    0.2891572465    0.0816054999         -0.4504
H255       H   -0.0293437296    0.2523036060    0.0747872772         -0.4429
H256       H    0.0390467220    0.2945472275   -0.1161440156          0.4927
H257       H   -0.0279026136    0.2900676455   -0.1180866538         -0.4455
H258       H    0.0004483984    0.3436690051   -0.0955152026          0.5298
H259       H   -0.0313009607    0.1882265161    0.0481433674         -0.4429
C230       C   -0.3062714914   -0.0000000000    0.0000000000          0.5278
C231       C   -0.2761691334    0.0240954671   -0.0357516884          0.5243
C232       C   -0.2227467958    0.0241615484   -0.0363646626          0.5253
C233       C   -0.1937285086   -0.0000000000    0.0000000000          0.5304
C234       C   -0.2243235482   -0.0232475698    0.0318710069          0.5321
C235       C   -0.2751901026   -0.0245587525    0.0308639992          0.5294
C236       C   -0.1970625043    0.0571581640   -0.0766789186          0.5253
Br237     Br   -0.3079236338    0.0647336372   -0.0863847754          0.5223
O238       O   -0.3001589317   -0.0387725836    0.0697540988         -0.4582
O239       O   -0.2108427535   -0.0360262896    0.0759444990         -0.4504
H240       H   -0.2476963940   -0.0245924133    0.0764813997         -0.4429
H241       H   -0.2054527725    0.0432439549   -0.1146474562          0.4927
H242       H   -0.2099323545    0.0963193885   -0.0737942345         -0.4455
H243       H   -0.1563309949    0.0600834820   -0.0742518025          0.5298
H244       H   -0.3117734839   -0.0062195944    0.0570863435         -0.4429
C215       C    0.3062714914   -0.0000000000    0.0000000000          0.5278
C216       C    0.2761691334   -0.0110537519    0.0416724049          0.5243
C217       C    0.2227467958   -0.0114717086    0.0421256336          0.5253
C218       C    0.1937285086   -0.0000000000    0.0000000000          0.5304
C219       C    0.2243235482    0.0086904486   -0.0384796918          0.5321
C220       C    0.2751901026    0.0070692936   -0.0388039155          0.5294
C221       C    0.1970625043   -0.0201011508    0.0935021711          0.5253
Br222     Br    0.3079236338   -0.0224213745    0.1055938216          0.5223
O223       O    0.3001589317    0.0269901306   -0.0751031317         -0.4582
O224       O    0.2108427535    0.0334580441   -0.0771104387         -0.4504
H225       H    0.2476963940    0.0413884244   -0.0688562969         -0.4429
H226       H    0.2054527725   -0.0578431304    0.1080196793          0.4927
H227       H    0.2099323545    0.0078478216    0.1210843728         -0.4455
H228       H    0.1563309949   -0.0163484395    0.0941067665          0.5298
H229       H    0.3117734839    0.0388812711   -0.0422584988         -0.4429
C200       C    0.0000000000    0.0000000000   -0.1937285086          0.5278
C201       C   -0.0088079114   -0.0422042113   -0.2238308666          0.5243
C202       C   -0.0086375868   -0.0427967429   -0.2772532042          0.5253
C203       C   -0.0000000000    0.0000000000   -0.3062714914          0.5304
C204       C    0.0094884921    0.0382907181   -0.2756764518          0.5321
C205       C    0.0110828930    0.0378535104   -0.2248098974          0.5294
C206       C   -0.0239641572   -0.0925874259   -0.3029374957          0.5253
Br207     Br   -0.0273127821   -0.1044355549   -0.1920763662          0.5223
O208       O    0.0095557299    0.0792315314   -0.1998410683         -0.4582
O209       O    0.0046748181    0.0839261970   -0.2891572465         -0.4504
H210       H   -0.0061149752    0.0801049210   -0.2523036060         -0.4429
H211       H    0.0032596510   -0.1224885853   -0.2945472275          0.4927
H212       H   -0.0613143661   -0.1047070301   -0.2900676455         -0.4455
H213       H   -0.0275894951   -0.0914449274   -0.3436690051          0.5298
H214       H   -0.0158017573    0.0552072317   -0.1882265161         -0.4429
C185       C   -0.0000000000   -0.0000000000    0.1937285086          0.5278
C186       C    0.0387251589   -0.0189509057    0.2238308666          0.5243
C187       C    0.0390884013   -0.0194490613    0.2772532042          0.5253
C188       C   -0.0000000000    0.0000000000    0.3062714914          0.5304
C189       C   -0.0360533065    0.0160115480    0.2756764518          0.5321
C190       C   -0.0366867701    0.0144844630    0.2248098974          0.5294
C191       C    0.0878039342   -0.0379101755    0.3029374957          0.5253
Br192     Br    0.0992130262   -0.0425387898    0.1920763662          0.5223
O193       O   -0.0684161198    0.0410874932    0.1998410683         -0.4582
O194       O   -0.0691265666    0.0478223615    0.2891572465         -0.4504
H195       H   -0.0594871257    0.0539951217    0.2523036060         -0.4429
H196       H    0.0947003238   -0.0777555627    0.2945472275          0.4927
H197       H    0.1202971514   -0.0158621882    0.2900676455         -0.4455
H198       H    0.0891271590   -0.0343468269    0.3436690051          0.5298
H199       H   -0.0338855053    0.0463606136    0.1882265161         -0.4429
loop_
_geom_bond_atom_site_label_1
_geom_bond_atom_site_label_2
_geom_bond_distance
_geom_bond_site_symmetry_2
_ccdc_geom_bond_type
Zn1          O5 1.942       .   S
Zn1          O6 1.922       .   S
Zn1         O10 1.922       .   S
Zn1         O17 1.922       .   S
Zn2          O5 1.942       .   S
Zn2          O7 1.922       .   S
Zn2          O9 1.922       .   S
Zn2         O13 1.922       .   S
Zn3          O5 1.942       .   S
Zn3          O8 1.922       .   S
Zn3         O11 1.922       .   S
Zn3         O14 1.922       .   S
Zn4          O5 1.942       .   S
Zn4         O12 1.922       .   S
Zn4         O15 1.922       .   S
Zn4         O16 1.922       .   S
O6          C18 1.304       .   A
O7          C19 1.304       .   A
O8          C20 1.304       .   A
O9          C18 1.304       .   A
O10         C20 1.304       .   A
O11         C19 1.304       .   A
O12         C21 1.304       .   A
O13         C22 1.304       .   A
O14         C21 1.304       .   A
O15         C22 1.304       .   A
O16         C23 1.304       .   A
O17         C23 1.304       .   A
C18        C185 1.540       .   S
C19        C218 1.540       .   S
C20        C260 1.540       .   S
C21        C200 1.540       .   S
C22        C245 1.540       .   S
C23        C233 1.540       .   S
Zn24        O28 1.942       .   S
Zn24        O29 1.922       .   S
Zn24        O33 1.922       .   S
Zn24        O40 1.922       .   S
Zn25        O28 1.942       .   S
Zn25        O30 1.922       .   S
Zn25        O32 1.922       .   S
Zn25        O36 1.922       .   S
Zn26        O28 1.942       .   S
Zn26        O31 1.922       .   S
Zn26        O34 1.922       .   S
Zn26        O37 1.922       .   S
Zn27        O28 1.942       .   S
Zn27        O35 1.922       .   S
Zn27        O38 1.922       .   S
Zn27        O39 1.922       .   S
O29         C41 1.304       .   A
O30         C42 1.304       .   A
O31         C43 1.304       .   A
O32         C41 1.304       .   A
O33         C43 1.304       .   A
O34         C42 1.304       .   A
O35         C44 1.304       .   A
O36         C45 1.304       .   A
O37         C44 1.304       .   A
O38         C45 1.304       .   A
O39         C46 1.304       .   A
O40         C46 1.304       .   A
C41        C188 1.540   1_655   S
C42        C278 1.540       .   S
C43        C305 1.540       .   S
C44        C203 1.540   1_656   S
C45        C320 1.540       .   S
C46        C290 1.540       .   S
Zn47        O51 1.942       .   S
Zn47        O52 1.922       .   S
Zn47        O56 1.922       .   S
Zn47        O63 1.922       .   S
Zn48        O51 1.942       .   S
Zn48        O53 1.922       .   S
Zn48        O55 1.922       .   S
Zn48        O59 1.922       .   S
Zn49        O51 1.942       .   S
Zn49        O54 1.922       .   S
Zn49        O57 1.922       .   S
Zn49        O60 1.922       .   S
Zn50        O51 1.942       .   S
Zn50        O58 1.922       .   S
Zn50        O61 1.922       .   S
Zn50        O62 1.922       .   S
O52         C64 1.304       .   A
O53         C65 1.304       .   A
O54         C66 1.304       .   A
O55         C64 1.304       .   A
O56         C66 1.304       .   A
O57         C65 1.304       .   A
O58         C67 1.304       .   A
O59         C68 1.304       .   A
O60         C67 1.304       .   A
O61         C68 1.304       .   A
O62         C69 1.304       .   A
O63         C69 1.304       .   A
C64        C248 1.540   1_655   S
C65        C335 1.540       .   S
C66        C368 1.540       .   S
C67        C263 1.540   1_665   S
C68        C380 1.540       .   S
C69        C350 1.540       .   S
Zn70        O74 1.942       .   S
Zn70        O75 1.922       .   S
Zn70        O79 1.922       .   S
Zn70        O86 1.922       .   S
Zn71        O74 1.942       .   S
Zn71        O76 1.922       .   S
Zn71        O78 1.922       .   S
Zn71        O82 1.922       .   S
Zn72        O74 1.942       .   S
Zn72        O77 1.922       .   S
Zn72        O80 1.922       .   S
Zn72        O83 1.922       .   S
Zn73        O74 1.942       .   S
Zn73        O81 1.922       .   S
Zn73        O84 1.922       .   S
Zn73        O85 1.922       .   S
O75         C87 1.304       .   A
O76         C88 1.304       .   A
O77         C89 1.304       .   A
O78         C87 1.304       .   A
O79         C89 1.304       .   A
O80         C88 1.304       .   A
O81         C90 1.304       .   A
O82         C91 1.304       .   A
O83         C90 1.304       .   A
O84         C91 1.304       .   A
O85         C92 1.304       .   A
O86         C92 1.304       .   A
C87        C308 1.540       .   S
C88        C338 1.540       .   S
C89        C410 1.540       .   S
C90        C323 1.540   1_565   S
C91        C398 1.540       .   S
C92        C353 1.540   1_556   S
Zn93        O97 1.942       .   S
Zn93        O98 1.922       .   S
Zn93       O102 1.922       .   S
Zn93       O109 1.922       .   S
Zn94        O97 1.942       .   S
Zn94        O99 1.922       .   S
Zn94       O101 1.922       .   S
Zn94       O105 1.922       .   S
Zn95        O97 1.942       .   S
Zn95       O100 1.922       .   S
Zn95       O103 1.922       .   S
Zn95       O106 1.922       .   S
Zn96        O97 1.942       .   S
Zn96       O104 1.922       .   S
Zn96       O107 1.922       .   S
Zn96       O108 1.922       .   S
O98        C110 1.304       .   A
O99        C111 1.304       .   A
O100       C112 1.304       .   A
O101       C110 1.304       .   A
O102       C112 1.304       .   A
O103       C111 1.304       .   A
O104       C113 1.304       .   A
O105       C114 1.304       .   A
O106       C113 1.304       .   A
O107       C114 1.304       .   A
O108       C115 1.304       .   A
O109       C115 1.304       .   A
C110       C458 1.540       .   S
C111       C215 1.540   1_565   S
C112       C440 1.540       .   S
C113       C470 1.540       .   S
C114       C425 1.540       .   S
C115       C230 1.540   1_665   S
Zn116      O120 1.942       .   S
Zn116      O121 1.922       .   S
Zn116      O125 1.922       .   S
Zn116      O132 1.922       .   S
Zn117      O120 1.942       .   S
Zn117      O122 1.922       .   S
Zn117      O124 1.922       .   S
Zn117      O128 1.922       .   S
Zn118      O120 1.942       .   S
Zn118      O123 1.922       .   S
Zn118      O126 1.922       .   S
Zn118      O129 1.922       .   S
Zn119      O120 1.942       .   S
Zn119      O127 1.922       .   S
Zn119      O130 1.922       .   S
Zn119      O131 1.922       .   S
O121       C133 1.304       .   A
O122       C134 1.304       .   A
O123       C135 1.304       .   A
O124       C133 1.304       .   A
O125       C135 1.304       .   A
O126       C134 1.304       .   A
O127       C136 1.304       .   A
O128       C137 1.304       .   A
O129       C136 1.304       .   A
O130       C137 1.304       .   A
O131       C138 1.304       .   A
O132       C138 1.304       .   A
C133       C275 1.540   1_465   S
C134       C500 1.540       .   S
C135       C428 1.540       .   S
C136       C293 1.540   1_565   S
C137       C443 1.540   1_556   S
C138       C485 1.540       .   S
Zn139      O143 1.942       .   S
Zn139      O144 1.922       .   S
Zn139      O148 1.922       .   S
Zn139      O155 1.922       .   S
Zn140      O143 1.942       .   S
Zn140      O145 1.922       .   S
Zn140      O147 1.922       .   S
Zn140      O151 1.922       .   S
Zn141      O143 1.942       .   S
Zn141      O146 1.922       .   S
Zn141      O149 1.922       .   S
Zn141      O152 1.922       .   S
Zn142      O143 1.942       .   S
Zn142      O150 1.922       .   S
Zn142      O153 1.922       .   S
Zn142      O154 1.922       .   S
O144       C156 1.304       .   A
O145       C157 1.304       .   A
O146       C158 1.304       .   A
O147       C156 1.304       .   A
O148       C158 1.304       .   A
O149       C157 1.304       .   A
O150       C159 1.304       .   A
O151       C160 1.304       .   A
O152       C159 1.304       .   A
O153       C160 1.304       .   A
O154       C161 1.304       .   A
O155       C161 1.304       .   A
C156       C365 1.540   1_455   S
C157       C515 1.540       .   S
C158       C455 1.540   1_545   S
C159       C383 1.540       .   S
C160       C473 1.540       .   S
C161       C530 1.540       .   S
Zn162      O166 1.942       .   S
Zn162      O167 1.922       .   S
Zn162      O171 1.922       .   S
Zn162      O178 1.922       .   S
Zn163      O166 1.942       .   S
Zn163      O168 1.922       .   S
Zn163      O170 1.922       .   S
Zn163      O174 1.922       .   S
Zn164      O166 1.942       .   S
Zn164      O169 1.922       .   S
Zn164      O172 1.922       .   S
Zn164      O175 1.922       .   S
Zn165      O166 1.942       .   S
Zn165      O173 1.922       .   S
Zn165      O176 1.922       .   S
Zn165      O177 1.922       .   S
O167       C179 1.304       .   A
O168       C180 1.304       .   A
O169       C181 1.304       .   A
O170       C179 1.304       .   A
O171       C181 1.304       .   A
O172       C180 1.304       .   A
O173       C182 1.304       .   A
O174       C183 1.304       .   A
O175       C182 1.304       .   A
O176       C183 1.304       .   A
O177       C184 1.304       .   A
O178       C184 1.304       .   A
C179       C395 1.540   1_455   S
C180       C488 1.540   1_545   S
C181       C518 1.540       .   S
C182       C413 1.540       .   S
C183       C533 1.540   1_556   S
C184       C503 1.540       .   S
C530       C531 0.049       .   A
C530       C535 0.046       .   A
C531       C532 0.049       .   A
C531      Br537 0.067       .   A
C532       C533 0.049       .   A
C532       C536 0.054       .   A
C533       C534 0.046       .   A
C534       C535 0.047       .   A
C534       O539 0.044       .   A
C535       O538 0.045       .   A
C536       H541 0.038       .   A
C536       H542 0.038       .   A
C536       H543 0.038       .   A
O538       H544 0.034       .   A
O539       H540 0.036       .   A
C515       C516 0.049       .   A
C515       C520 0.046       .   A
C516       C517 0.049       .   A
C516      Br522 0.067       .   A
C517       C518 0.049       .   A
C517       C521 0.054       .   A
C518       C519 0.046       .   A
C519       C520 0.047       .   A
C519       O524 0.044       .   A
C520       O523 0.045       .   A
C521       H526 0.038       .   A
C521       H527 0.038       .   A
C521       H528 0.038       .   A
O523       H529 0.034       .   A
O524       H525 0.036       .   A
C500       C501 0.049       .   A
C500       C505 0.046       .   A
C501       C502 0.049       .   A
C501      Br507 0.067       .   A
C502       C503 0.049       .   A
C502       C506 0.054       .   A
C503       C504 0.046       .   A
C504       C505 0.047       .   A
C504       O509 0.044       .   A
C505       O508 0.045       .   A
C506       H511 0.038       .   A
C506       H512 0.038       .   A
C506       H513 0.038       .   A
O508       H514 0.034       .   A
O509       H510 0.036       .   A
C485       C486 0.049       .   A
C485       C490 0.046       .   A
C486       C487 0.049       .   A
C486      Br492 0.067       .   A
C487       C488 0.049       .   A
C487       C491 0.054       .   A
C488       C489 0.046       .   A
C489       C490 0.047       .   A
C489       O494 0.044       .   A
C490       O493 0.045       .   A
C491       H496 0.038       .   A
C491       H497 0.038       .   A
C491       H498 0.038       .   A
O493       H499 0.034       .   A
O494       H495 0.036       .   A
C470       C471 0.049       .   A
C470       C475 0.046       .   A
C471       C472 0.049       .   A
C471      Br477 0.067       .   A
C472       C473 0.049       .   A
C472       C476 0.054       .   A
C473       C474 0.046       .   A
C474       C475 0.047       .   A
C474       O479 0.044       .   A
C475       O478 0.045       .   A
C476       H481 0.038       .   A
C476       H482 0.038       .   A
C476       H483 0.038       .   A
O478       H484 0.034       .   A
O479       H480 0.036       .   A
C455       C456 0.049       .   A
C455       C460 0.046       .   A
C456       C457 0.049       .   A
C456      Br462 0.067       .   A
C457       C458 0.049       .   A
C457       C461 0.054       .   A
C458       C459 0.046       .   A
C459       C460 0.047       .   A
C459       O464 0.044       .   A
C460       O463 0.045       .   A
C461       H466 0.038       .   A
C461       H467 0.038       .   A
C461       H468 0.038       .   A
O463       H469 0.034       .   A
O464       H465 0.036       .   A
C440       C441 0.049       .   A
C440       C445 0.046       .   A
C441       C442 0.049       .   A
C441      Br447 0.067       .   A
C442       C443 0.049       .   A
C442       C446 0.054       .   A
C443       C444 0.046       .   A
C444       C445 0.047       .   A
C444       O449 0.044       .   A
C445       O448 0.045       .   A
C446       H451 0.038       .   A
C446       H452 0.038       .   A
C446       H453 0.038       .   A
O448       H454 0.034       .   A
O449       H450 0.036       .   A
C425       C426 0.049       .   A
C425       C430 0.046       .   A
C426       C427 0.049       .   A
C426      Br432 0.067       .   A
C427       C428 0.049       .   A
C427       C431 0.054       .   A
C428       C429 0.046       .   A
C429       C430 0.047       .   A
C429       O434 0.044       .   A
C430       O433 0.045       .   A
C431       H436 0.038       .   A
C431       H437 0.038       .   A
C431       H438 0.038       .   A
O433       H439 0.034       .   A
O434       H435 0.036       .   A
C410       C411 0.049       .   A
C410       C415 0.046       .   A
C411       C412 0.049       .   A
C411      Br417 0.067       .   A
C412       C413 0.049       .   A
C412       C416 0.054       .   A
C413       C414 0.046       .   A
C414       C415 0.047       .   A
C414       O419 0.044       .   A
C415       O418 0.045       .   A
C416       H421 0.038       .   A
C416       H422 0.038       .   A
C416       H423 0.038       .   A
O418       H424 0.034       .   A
O419       H420 0.036       .   A
C395       C396 0.049       .   A
C395       C400 0.046       .   A
C396       C397 0.049       .   A
C396      Br402 0.067       .   A
C397       C398 0.049       .   A
C397       C401 0.054       .   A
C398       C399 0.046       .   A
C399       C400 0.047       .   A
C399       O404 0.044       .   A
C400       O403 0.045       .   A
C401       H406 0.038       .   A
C401       H407 0.038       .   A
C401       H408 0.038       .   A
O403       H409 0.034       .   A
O404       H405 0.036       .   A
C380       C381 0.049       .   A
C380       C385 0.046       .   A
C381       C382 0.049       .   A
C381      Br387 0.067       .   A
C382       C383 0.049       .   A
C382       C386 0.054       .   A
C383       C384 0.046       .   A
C384       C385 0.047       .   A
C384       O389 0.044       .   A
C385       O388 0.045       .   A
C386       H391 0.038       .   A
C386       H392 0.038       .   A
C386       H393 0.038       .   A
O388       H394 0.034       .   A
O389       H390 0.036       .   A
C365       C366 0.049       .   A
C365       C370 0.046       .   A
C366       C367 0.049       .   A
C366      Br372 0.067       .   A
C367       C368 0.049       .   A
C367       C371 0.054       .   A
C368       C369 0.046       .   A
C369       C370 0.047       .   A
C369       O374 0.044       .   A
C370       O373 0.045       .   A
C371       H376 0.038       .   A
C371       H377 0.038       .   A
C371       H378 0.038       .   A
O373       H379 0.034       .   A
O374       H375 0.036       .   A
C350       C351 0.049       .   A
C350       C355 0.046       .   A
C351       C352 0.049       .   A
C351      Br357 0.067       .   A
C352       C353 0.049       .   A
C352       C356 0.054       .   A
C353       C354 0.046       .   A
C354       C355 0.047       .   A
C354       O359 0.044       .   A
C355       O358 0.045       .   A
C356       H361 0.038       .   A
C356       H362 0.038       .   A
C356       H363 0.038       .   A
O358       H364 0.034       .   A
O359       H360 0.036       .   A
C335       C336 0.049       .   A
C335       C340 0.046       .   A
C336       C337 0.049       .   A
C336      Br342 0.067       .   A
C337       C338 0.049       .   A
C337       C341 0.054       .   A
C338       C339 0.046       .   A
C339       C340 0.047       .   A
C339       O344 0.044       .   A
C340       O343 0.045       .   A
C341       H346 0.038       .   A
C341       H347 0.038       .   A
C341       H348 0.038       .   A
O343       H349 0.034       .   A
O344       H345 0.036       .   A
C320       C321 0.049       .   A
C320       C325 0.046       .   A
C321       C322 0.049       .   A
C321      Br327 0.067       .   A
C322       C323 0.049       .   A
C322       C326 0.054       .   A
C323       C324 0.046       .   A
C324       C325 0.047       .   A
C324       O329 0.044       .   A
C325       O328 0.045       .   A
C326       H331 0.038       .   A
C326       H332 0.038       .   A
C326       H333 0.038       .   A
O328       H334 0.034       .   A
O329       H330 0.036       .   A
C305       C306 0.049       .   A
C305       C310 0.046       .   A
C306       C307 0.049       .   A
C306      Br312 0.067       .   A
C307       C308 0.049       .   A
C307       C311 0.054       .   A
C308       C309 0.046       .   A
C309       C310 0.047       .   A
C309       O314 0.044       .   A
C310       O313 0.045       .   A
C311       H316 0.038       .   A
C311       H317 0.038       .   A
C311       H318 0.038       .   A
O313       H319 0.034       .   A
O314       H315 0.036       .   A
C290       C291 0.049       .   A
C290       C295 0.046       .   A
C291       C292 0.049       .   A
C291      Br297 0.067       .   A
C292       C293 0.049       .   A
C292       C296 0.054       .   A
C293       C294 0.046       .   A
C294       C295 0.047       .   A
C294       O299 0.044       .   A
C295       O298 0.045       .   A
C296       H301 0.038       .   A
C296       H302 0.038       .   A
C296       H303 0.038       .   A
O298       H304 0.034       .   A
O299       H300 0.036       .   A
C275       C276 0.049       .   A
C275       C280 0.046       .   A
C276       C277 0.049       .   A
C276      Br282 0.067       .   A
C277       C278 0.049       .   A
C277       C281 0.054       .   A
C278       C279 0.046       .   A
C279       C280 0.047       .   A
C279       O284 0.044       .   A
C280       O283 0.045       .   A
C281       H286 0.038       .   A
C281       H287 0.038       .   A
C281       H288 0.038       .   A
O283       H289 0.034       .   A
O284       H285 0.036       .   A
C260       C261 0.049       .   A
C260       C265 0.046       .   A
C261       C262 0.049       .   A
C261      Br267 0.067       .   A
C262       C263 0.049       .   A
C262       C266 0.054       .   A
C263       C264 0.046       .   A
C264       C265 0.047       .   A
C264       O269 0.044       .   A
C265       O268 0.045       .   A
C266       H271 0.038       .   A
C266       H272 0.038       .   A
C266       H273 0.038       .   A
O268       H274 0.034       .   A
O269       H270 0.036       .   A
C245       C246 0.049       .   A
C245       C250 0.046       .   A
C246       C247 0.049       .   A
C246      Br252 0.067       .   A
C247       C248 0.049       .   A
C247       C251 0.054       .   A
C248       C249 0.046       .   A
C249       C250 0.047       .   A
C249       O254 0.044       .   A
C250       O253 0.045       .   A
C251       H256 0.038       .   A
C251       H257 0.038       .   A
C251       H258 0.038       .   A
O253       H259 0.034       .   A
O254       H255 0.036       .   A
C230       C231 0.049       .   A
C230       C235 0.046       .   A
C231       C232 0.049       .   A
C231      Br237 0.067       .   A
C232       C233 0.049       .   A
C232       C236 0.054       .   A
C233       C234 0.046       .   A
C234       C235 0.047       .   A
C234       O239 0.044       .   A
C235       O238 0.045       .   A
C236       H241 0.038       .   A
C236       H242 0.038       .   A
C236       H243 0.038       .   A
O238       H244 0.034       .   A
O239       H240 0.036       .   A
C215       C216 0.049       .   A
C215       C220 0.046       .   A
C216       C217 0.049       .   A
C216      Br222 0.067       .   A
C217       C218 0.049       .   A
C217       C221 0.054       .   A
C218       C219 0.046       .   A
C219       C220 0.047       .   A
C219       O224 0.044       .   A
C220       O223 0.045       .   A
C221       H226 0.038       .   A
C221       H227 0.038       .   A
C221       H228 0.038       .   A
O223       H229 0.034       .   A
O224       H225 0.036       .   A
C200       C201 0.049       .   A
C200       C205 0.046       .   A
C201       C202 0.049       .   A
C201      Br207 0.067       .   A
C202       C203 0.049       .   A
C202       C206 0.054       .   A
C203       C204 0.046       .   A
C204       C205 0.047       .   A
C204       O209 0.044       .   A
C205       O208 0.045       .   A
C206       H211 0.038       .   A
C206       H212 0.038       .   A
C206       H213 0.038       .   A
O208       H214 0.034       .   A
O209       H210 0.036       .   A
C185       C186 0.049       .   A
C185       C190 0.046       .   A
C186       C187 0.049       .   A
C186      Br192 0.067       .   A
C187       C188 0.049       .   A
C187       C191 0.054       .   A
C188       C189 0.046       .   A
C189       C190 0.047       .   A
C189       O194 0.044       .   A
C190       O193 0.045       .   A
C191       H196 0.038       .   A
C191       H197 0.038       .   A
C191       H198 0.038       .   A
O193       H199 0.034       .   A
O194       H195 0.036       .   A
