data_pcu_v1-6c_Zn_1_Ch_1-51_fer_tobacco
_audit_creation_date              2021-02-03
_audit_creation_method            'tobacco_3.0'
_symmetry_space_group_name_H-M    'P1'
_symmetry_Int_Tables_number       1
_symmetry_cell_setting            triclinic
loop_
_symmetry_equiv_pos_as_xyz
  x,y,z
_cell_length_a                    34.52633780242523
_cell_length_b                    34.52633780242523
_cell_length_c                    34.52633780242523
_cell_angle_alpha                 90.0
_cell_angle_beta                  90.0
_cell_angle_gamma                 90.0
loop_
_atom_site_label
_atom_site_type_symbol
_atom_site_fract_x
_atom_site_fract_y
_atom_site_fract_z
_atom_site_charge
Zn1       Zn   -0.0324737598   -0.0324737598    0.0324737598          1.4972
Zn2       Zn    0.0324737598    0.0324737598    0.0324737598          1.4936
Zn3       Zn    0.0324737598   -0.0324737598   -0.0324737598          1.4911
Zn4       Zn   -0.0324737598    0.0324737598   -0.0324737598          1.4948
O5         O    0.0000000000    0.0000000000    0.0000000000         -2.2459
O6         O   -0.0238658384   -0.0238658384    0.0867917130         -1.1522
O7         O    0.0867917130    0.0238658384    0.0238658384 -1.1480000000000001
O8         O    0.0238658384   -0.0867917130   -0.0238658384         -1.1456
O9         O    0.0238658384    0.0238658384    0.0867917130         -1.1523
O10        O   -0.0238658384   -0.0867917130    0.0238658384         -1.1483
O11        O    0.0867917130   -0.0238658384   -0.0238658384         -1.1542
O12        O   -0.0238658384    0.0238658384   -0.0867917130         -1.1481
O13        O    0.0238658384    0.0867917130    0.0238658384         -1.1556
O14        O    0.0238658384   -0.0238658384   -0.0867917130         -1.1495
O15        O   -0.0238658384    0.0867917130   -0.0238658384         -1.1542
O16        O   -0.0867917130    0.0238658384   -0.0238658384         -1.1533
O17        O   -0.0867917130   -0.0238658384    0.0238658384         -1.1512
C18        C   -0.0000000000   -0.0000000000    0.1037700558          0.3667
C19        C    0.1037700558   -0.0000000000   -0.0000000000          0.3716
C20        C   -0.0000000000   -0.1037700558    0.0000000000          0.3612
C21        C    0.0000000000    0.0000000000   -0.1037700558           0.365
C22        C    0.0000000000    0.1037700558   -0.0000000000          0.3763
C23        C   -0.1037700558    0.0000000000    0.0000000000          0.3668
Zn24      Zn    0.9675262402    0.0324737598    0.4675262402          1.4972
Zn25      Zn    1.0324737598   -0.0324737598    0.4675262402          1.4936
Zn26      Zn    1.0324737598    0.0324737598    0.5324737598          1.4911
Zn27      Zn    0.9675262402   -0.0324737598    0.5324737598          1.4948
O28        O    1.0000000000    0.0000000000    0.5000000000         -2.2459
O29        O    0.9761341616    0.0238658384    0.4132082870         -1.1522
O30        O    1.0867917130   -0.0238658384    0.4761341616         -1.1504
O31        O    1.0238658384    0.0867917130    0.5238658384         -1.1456
O32        O    1.0238658384   -0.0238658384    0.4132082870         -1.1523
O33        O    0.9761341616    0.0867917130    0.4761341616         -1.1483
O34        O    1.0867917130    0.0238658384    0.5238658384         -1.1542
O35        O    0.9761341616   -0.0238658384    0.5867917130         -1.1481
O36        O    1.0238658384   -0.0867917130    0.4761341616         -1.1556
O37        O    1.0238658384    0.0238658384    0.5867917130         -1.1495
O38        O    0.9761341616   -0.0867917130    0.5238658384         -1.1542
O39        O    0.9132082870   -0.0238658384    0.5238658384         -1.1533
O40        O    0.9132082870    0.0238658384    0.4761341616         -1.1512
C41        C    1.0000000000    0.0000000000    0.3962299442          0.3667
C42        C    1.1037700558    0.0000000000    0.5000000000          0.3716
C43        C    1.0000000000    0.1037700558    0.5000000000          0.3612
C44        C    1.0000000000    0.0000000000    0.6037700558           0.365
C45        C    1.0000000000   -0.1037700558    0.5000000000          0.3763
C46        C    0.8962299442    0.0000000000    0.5000000000          0.3668
Zn47      Zn    0.9675262402    0.4675262402    0.0324737598          1.4972
Zn48      Zn    0.9675262402    0.5324737598   -0.0324737598          1.4936
Zn49      Zn    1.0324737598    0.5324737598    0.0324737598          1.4911
Zn50      Zn    1.0324737598    0.4675262402   -0.0324737598          1.4948
O51        O    1.0000000000    0.5000000000    0.0000000000         -2.2459
O52        O    0.9132082870    0.4761341616    0.0238658384         -1.1522
O53        O    0.9761341616    0.5867917130   -0.0238658384         -1.1504
O54        O    1.0238658384    0.5238658384    0.0867917130         -1.1456
O55        O    0.9132082870    0.5238658384   -0.0238658384         -1.1523
O56        O    0.9761341616    0.4761341616    0.0867917130         -1.1483
O57        O    1.0238658384    0.5867917130    0.0238658384         -1.1542
O58        O    1.0867917130    0.4761341616   -0.0238658384         -1.1481
O59        O    0.9761341616    0.5238658384   -0.0867917130         -1.1556
O60        O    1.0867917130    0.5238658384    0.0238658384         -1.1495
O61        O    1.0238658384    0.4761341616   -0.0867917130         -1.1542
O62        O    1.0238658384    0.4132082870   -0.0238658384         -1.1533
O63        O    0.9761341616    0.4132082870    0.0238658384         -1.1512
C64        C    0.8962299442    0.5000000000    0.0000000000          0.3667
C65        C    1.0000000000    0.6037700558    0.0000000000          0.3716
C66        C    1.0000000000    0.5000000000    0.1037700558          0.3612
C67        C    1.1037700558    0.5000000000    0.0000000000           0.365
C68        C    1.0000000000    0.5000000000   -0.1037700558          0.3763
C69        C    1.0000000000    0.3962299442    0.0000000000          0.3668
Zn70      Zn    0.9675262402    0.4675262402    0.5324737598          1.4972
Zn71      Zn    1.0324737598    0.4675262402    0.4675262402          1.4936
Zn72      Zn    0.9675262402    0.5324737598    0.4675262402          1.4911
Zn73      Zn    1.0324737598    0.5324737598    0.5324737598          1.4948
O74        O    1.0000000000    0.5000000000    0.5000000000         -2.2459
O75        O    0.9761341616    0.4132082870    0.5238658384         -1.1522
O76        O    1.0238658384    0.4761341616    0.4132082870         -1.1504
O77        O    0.9132082870    0.5238658384    0.4761341616         -1.1456
O78        O    1.0238658384    0.4132082870    0.4761341616         -1.1523
O79        O    0.9132082870    0.4761341616    0.5238658384         -1.1483
O80        O    0.9761341616    0.5238658384    0.4132082870         -1.1542
O81        O    1.0238658384    0.5867917130    0.5238658384         -1.1481
O82        O    1.0867917130    0.4761341616    0.4761341616         -1.1556
O83        O    0.9761341616    0.5867917130    0.4761341616         -1.1495
O84        O    1.0867917130    0.5238658384    0.5238658384         -1.1542
O85        O    1.0238658384    0.5238658384    0.5867917130         -1.1533
O86        O    0.9761341616    0.4761341616    0.5867917130         -1.1512
C87        C    1.0000000000    0.3962299442    0.5000000000          0.3667
C88        C    1.0000000000    0.5000000000    0.3962299442          0.3716
C89        C    0.8962299442    0.5000000000    0.5000000000          0.3612
C90        C    1.0000000000    0.6037700558    0.5000000000           0.365
C91        C    1.1037700558    0.5000000000    0.5000000000          0.3763
C92        C    1.0000000000    0.5000000000    0.6037700558          0.3668
Zn93      Zn    0.4675262402    0.9675262402   -0.0324737598          1.4972
Zn94      Zn    0.4675262402    1.0324737598    0.0324737598          1.4936
Zn95      Zn    0.5324737598    0.9675262402    0.0324737598          1.4911
Zn96      Zn    0.5324737598    1.0324737598   -0.0324737598          1.4948
O97        O    0.5000000000    1.0000000000    0.0000000000         -2.2459
O98        O    0.4132082870    0.9761341616   -0.0238658384         -1.1522
O99        O    0.4761341616    1.0238658384    0.0867917130         -1.1504
O100       O    0.5238658384    0.9132082870    0.0238658384         -1.1456
O101       O    0.4132082870    1.0238658384    0.0238658384         -1.1523
O102       O    0.4761341616    0.9132082870   -0.0238658384         -1.1483
O103       O    0.5238658384    0.9761341616    0.0867917130         -1.1542
O104       O    0.5867917130    1.0238658384   -0.0238658384         -1.1481
O105       O    0.4761341616    1.0867917130    0.0238658384         -1.1556
O106       O    0.5867917130    0.9761341616    0.0238658384         -1.1495
O107       O    0.5238658384    1.0867917130   -0.0238658384         -1.1542
O108       O    0.5238658384    1.0238658384   -0.0867917130         -1.1533
O109       O    0.4761341616    0.9761341616   -0.0867917130         -1.1512
C110       C    0.3962299442    1.0000000000    0.0000000000          0.3667
C111       C    0.5000000000    1.0000000000    0.1037700558          0.3716
C112       C    0.5000000000    0.8962299442    0.0000000000          0.3612
C113       C    0.6037700558    1.0000000000    0.0000000000           0.365
C114       C    0.5000000000    1.1037700558    0.0000000000          0.3763
C115       C    0.5000000000    1.0000000000   -0.1037700558          0.3668
Zn116     Zn    0.4675262402    1.0324737598    0.5324737598          1.4972
Zn117     Zn    0.4675262402    0.9675262402    0.4675262402          1.4936
Zn118     Zn    0.5324737598    1.0324737598    0.4675262402          1.4911
Zn119     Zn    0.5324737598    0.9675262402    0.5324737598          1.4948
O120       O    0.5000000000    1.0000000000    0.5000000000         -2.2459
O121       O    0.4132082870    1.0238658384    0.5238658384         -1.1522
O122       O    0.4761341616    0.9761341616    0.4132082870         -1.1504
O123       O    0.5238658384    1.0867917130    0.4761341616         -1.1456
O124       O    0.4132082870    0.9761341616    0.4761341616         -1.1523
O125       O    0.4761341616    1.0867917130    0.5238658384         -1.1483
O126       O    0.5238658384    1.0238658384    0.4132082870         -1.1542
O127       O    0.5867917130    0.9761341616    0.5238658384         -1.1481
O128       O    0.4761341616    0.9132082870    0.4761341616         -1.1556
O129       O    0.5867917130    1.0238658384    0.4761341616         -1.1495
O130       O    0.5238658384    0.9132082870    0.5238658384         -1.1542
O131       O    0.5238658384    0.9761341616    0.5867917130         -1.1533
O132       O    0.4761341616    1.0238658384    0.5867917130         -1.1512
C133       C    0.3962299442    1.0000000000    0.5000000000          0.3667
C134       C    0.5000000000    1.0000000000    0.3962299442          0.3716
C135       C    0.5000000000    1.1037700558    0.5000000000          0.3612
C136       C    0.6037700558    1.0000000000    0.5000000000           0.365
C137       C    0.5000000000    0.8962299442    0.5000000000          0.3763
C138       C    0.5000000000    1.0000000000    0.6037700558          0.3668
Zn139     Zn    0.5324737598    0.4675262402   -0.0324737598          1.4972
Zn140     Zn    0.5324737598    0.5324737598    0.0324737598          1.4936
Zn141     Zn    0.4675262402    0.5324737598   -0.0324737598          1.4911
Zn142     Zn    0.4675262402    0.4675262402    0.0324737598          1.4948
O143       O    0.5000000000    0.5000000000    0.0000000000         -2.2459
O144       O    0.5867917130    0.4761341616   -0.0238658384         -1.1522
O145       O    0.5238658384    0.5867917130    0.0238658384         -1.1504
O146       O    0.4761341616    0.5238658384   -0.0867917130         -1.1456
O147       O    0.5867917130    0.5238658384    0.0238658384         -1.1523
O148       O    0.5238658384    0.4761341616   -0.0867917130         -1.1483
O149       O    0.4761341616    0.5867917130   -0.0238658384         -1.1542
O150       O    0.4132082870    0.4761341616    0.0238658384         -1.1481
O151       O    0.5238658384    0.5238658384    0.0867917130         -1.1556
O152       O    0.4132082870    0.5238658384   -0.0238658384         -1.1495
O153       O    0.4761341616    0.4761341616    0.0867917130         -1.1542
O154       O    0.4761341616    0.4132082870    0.0238658384         -1.1533
O155       O    0.5238658384    0.4132082870   -0.0238658384         -1.1512
C156       C    0.6037700558    0.5000000000    0.0000000000          0.3667
C157       C    0.5000000000    0.6037700558    0.0000000000          0.3716
C158       C    0.5000000000    0.5000000000   -0.1037700558          0.3612
C159       C    0.3962299442    0.5000000000    0.0000000000           0.365
C160       C    0.5000000000    0.5000000000    0.1037700558          0.3763
C161       C    0.5000000000    0.3962299442    0.0000000000          0.3668
Zn162     Zn    0.4675262402    0.5324737598    0.4675262402          1.4972
Zn163     Zn    0.4675262402    0.4675262402    0.5324737598          1.4936
Zn164     Zn    0.5324737598    0.4675262402    0.4675262402          1.4911
Zn165     Zn    0.5324737598    0.5324737598    0.5324737598          1.4948
O166       O    0.5000000000    0.5000000000    0.5000000000         -2.2459
O167       O    0.4132082870    0.5238658384    0.4761341616         -1.1522
O168       O    0.4761341616    0.4132082870    0.5238658384         -1.1504
O169       O    0.5238658384    0.4761341616    0.4132082870         -1.1456
O170       O    0.4132082870    0.4761341616    0.5238658384         -1.1523
O171       O    0.4761341616    0.5238658384    0.4132082870         -1.1483
O172       O    0.5238658384    0.4132082870    0.4761341616         -1.1542
O173       O    0.5867917130    0.5238658384    0.5238658384         -1.1481
O174       O    0.4761341616    0.4761341616    0.5867917130         -1.1556
O175       O    0.5867917130    0.4761341616    0.4761341616         -1.1495
O176       O    0.5238658384    0.5238658384    0.5867917130         -1.1542
O177       O    0.5238658384    0.5867917130    0.5238658384         -1.1533
O178       O    0.4761341616    0.5867917130    0.4761341616         -1.1512
C179       C    0.3962299442    0.5000000000    0.5000000000          0.3667
C180       C    0.5000000000    0.3962299442    0.5000000000          0.3716
C181       C    0.5000000000    0.5000000000    0.3962299442          0.3612
C182       C    0.6037700558    0.5000000000    0.5000000000           0.365
C183       C    0.5000000000    0.5000000000    0.6037700558          0.3763
C184       C    0.5000000000    0.6037700558    0.5000000000          0.3668
C714       C    0.5000000000    0.5000000000   -0.3516263141          0.5919
C715       C    0.5335754111    0.5033040299   -0.3333830487         -0.4051
C716       C    0.5369586130    0.5047149508   -0.2948388731         -0.4043
C717       C    0.5058216880    0.5021814294   -0.2702134921          -0.407
C718       C    0.4717609587    0.4993759009   -0.2903372284          0.5906
C719       C    0.4687614490    0.4984261045   -0.3291293710          0.5902
C720       C    0.5061209619    0.5016259813   -0.2295339958           0.592
N721       N    0.5742012800    0.5101775114   -0.2863398913         -0.3992
H722       H    0.5599017494    0.5053302767   -0.3506850922          -0.403
H723       H    0.4402054353    0.4957287367   -0.3421976398          0.5877
H724       H    0.4437867723    0.4964375283   -0.2767434648          0.5876
H725       H    0.5813900772    0.5317518689   -0.2675697669         -0.3792
H726       H    0.5902216984    0.4867925126   -0.2781643127          0.5789
C727       C    0.5376049380    0.4980885555   -0.2051077094          0.5885
C728       C    0.5347994409    0.4955870199   -0.1652469061          0.5857
C729       C    0.5000000000    0.5000000000   -0.1483736859          0.5895
C730       C    0.4691616326    0.5035847965   -0.1712559137         -0.4069
C731       C    0.4721939395    0.5039320255   -0.2097163876         -0.4061
Cl732     Cl    0.5729832991    0.4830445926   -0.1328482015          0.5736
C733       C    0.5694531490    0.4956955473   -0.2092169791          0.5863
H734       H    0.4442951266    0.5076283589   -0.2233364419         -0.4025
H735       H    0.4403837547    0.5066595711   -0.1586637148         -0.4042
N736       N    0.5993061627    0.5106705083   -0.2098960278         -0.3996
C691       C    0.5000000000    0.5000000000    0.1483736859          0.5919
C692       C    0.5335754111    0.5033040299    0.1666169513         -0.4051
C693       C    0.5369586130    0.5047149508    0.2051611269         -0.4043
C694       C    0.5058216880    0.5021814294    0.2297865079          -0.407
C695       C    0.4717609587    0.4993759009    0.2096627716          0.5906
C696       C    0.4687614490    0.4984261045    0.1708706290          0.5902
C697       C    0.5061209619    0.5016259813    0.2704660042           0.592
N698       N    0.5742012800    0.5101775114    0.2136601087         -0.3992
H699       H    0.5599017494    0.5053302767    0.1493149078          -0.403
H700       H    0.4402054353    0.4957287367    0.1578023602          0.5877
H701       H    0.4437867723    0.4964375283    0.2232565352          0.5876
H702       H    0.5813900772    0.5317518689    0.2324302331         -0.3792
H703       H    0.5902216984    0.4867925126    0.2218356873          0.5789
C704       C    0.5376049380    0.4980885555    0.2948922906          0.5885
C705       C    0.5347994409    0.4955870199    0.3347530939          0.5857
C706       C    0.5000000000    0.5000000000    0.3516263141          0.5895
C707       C    0.4691616326    0.5035847965    0.3287440863         -0.4069
C708       C    0.4721939395    0.5039320255    0.2902836124         -0.4061
Cl709     Cl    0.5729832991    0.4830445926    0.3671517985          0.5736
C710       C    0.5694531490    0.4956955473    0.2907830209          0.5863
H711       H    0.4442951266    0.5076283589    0.2766635581         -0.4025
H712       H    0.4403837547    0.5066595711    0.3413362852         -0.4042
N713       N    0.5993061627    0.5106705083    0.2901039722         -0.3996
C668       C    0.5000000000    0.8516263141    0.5000000000          0.5919
C669       C    0.5011449557    0.8333830487    0.5337181542         -0.4051
C670       C    0.5001917163    0.7948388731    0.5372576581         -0.4043
C671       C    0.4986039870    0.7702134921    0.5060582038          -0.407
C672       C    0.4969009762    0.7903372284    0.4719245837          0.5906
C673       C    0.4974476180    0.8291293710    0.4688261397          0.5902
C674       C    0.4991940002    0.7295339958    0.5062817477           0.592
N675       N    0.4996797258    0.7863398913    0.5748953211         -0.3992
H676       H    0.5026022271    0.8506850922    0.5600821092          -0.403
H677       H    0.4963620879    0.8421976398    0.4401635625          0.5877
H678       H    0.4961309512    0.7767434648    0.4438070410          0.5876
H679       H    0.4792395585    0.7675697669    0.5848618284         -0.3792
H680       H    0.5249702853    0.7781643127    0.5876976478          0.5789
C681       C    0.5068455257    0.7051077094    0.5370259876          0.5885
C682       C    0.5089559426    0.6652469061    0.5339155801          0.5857
C683       C    0.5000000000    0.6483736859    0.5000000000          0.5895
C684       C    0.4923865109    0.6712559137    0.4699019859         -0.4069
C685       C    0.4924415096    0.7097163876    0.4729536130         -0.4061
Cl686     Cl    0.5264161360    0.6328482015    0.5701158723          0.5736
C687       C    0.5134105462    0.7092169791    0.5682819556          0.5863
H688       H    0.4851044490    0.7233364419    0.4457842519         -0.4025
H689       H    0.4855498696    0.6586637148    0.4417793823         -0.4042
N690       N    0.5024960963    0.7098960278    0.5998465984         -0.3996
C645       C    0.5000000000    1.1483736859    0.5000000000          0.5919
C646       C    0.4680962088    1.1666169513    0.5109714610         -0.4051
C647       C    0.4651304915    1.2051611269    0.5131258225         -0.4043
C648       C    0.4948397719    1.2297865079    0.5034673810          -0.407
C649       C    0.5273309191    1.2096627716    0.4928688143          0.5906
C650       C    0.5300298563    1.1708706290    0.4912517458          0.5902
C651       C    0.4944202707    1.2704660042    0.5029960994           0.592
N652       N    0.4301573312    1.2136601087    0.5270446540         -0.3992
H653       H    0.4429501826    1.1493149078    0.5190249773          -0.403
H654       H    0.5571901927    1.1578023602    0.4820301496          0.5877
H655       H    0.5538694897    1.2232565352    0.4835471507          0.5876
H656       H    0.4281472602    1.2324302331    0.5496961732         -0.3792
H657       H    0.4091677492    1.2218356873    0.5079934225          0.5789
C658       C    0.4629707777    1.2948922906    0.5068280064          0.5885
C659       C    0.4651224576    1.3347530939    0.5037459993          0.5857
C660       C    0.5000000000    1.3516263141    0.5000000000          0.5895
C661       C    0.5308322938    1.3287440863    0.4963633350         -0.4069
C662       C    0.5279622377    1.2902836124    0.4974017141         -0.4061
Cl663     Cl    0.4250739363    1.3671517985    0.5003643643          0.5736
C664       C    0.4314312940    1.2907830209    0.5118575196          0.5863
H665       H    0.5559602674    1.2766635581    0.4945526840         -0.4025
H666       H    0.5595420109    1.3413362852    0.4927064733         -0.4042
N667       N    0.4058454955    1.2901039722    0.5333242101         -0.3996
C622       C    0.5000000000    0.8516263141    0.0000000000          0.5919
C623       C    0.5333873000    0.8333830487   -0.0048490249         -0.4051
C624       C    0.5370102148    0.7948388731   -0.0042911348         -0.4043
C625       C    0.5061750451    0.7702134921    0.0007207654          -0.407
C626       C    0.4724362228    0.7903372284    0.0061701814          0.5906
C627       C    0.4692964387    0.8291293710    0.0059678756          0.5902
C628       C    0.5063322941    0.7295339958    0.0001097332           0.592
N629       N    0.5744755761    0.7863398913   -0.0079246612         -0.3992
H630       H    0.5594307046    0.8506850922   -0.0091990640          -0.403
H631       H    0.4409274622    0.8421976398    0.0102014184          0.5877
H632       H    0.4445742453    0.7767434648    0.0100301492          0.5876
H633       H    0.5866311839    0.7675697669    0.0112944153         -0.3792
H634       H    0.5844166452    0.7781643127   -0.0344706048          0.5789
C635       C    0.5360476325    0.7051077094   -0.0108790242          0.5885
C636       C    0.5327238482    0.6652469061   -0.0126342882          0.5857
C637       C    0.5000000000    0.6483736859    0.0000000000          0.5895
C638       C    0.4709227751    0.6712559137    0.0108798283         -0.4069
C639       C    0.4739498103    0.7097163876    0.0104893012         -0.4061
Cl640     Cl    0.5667825497    0.6328482015   -0.0339726191          0.5736
C641       C    0.5663911713    0.7092169791   -0.0208441981          0.5863
H642       H    0.4477530229    0.7233364419    0.0207720525         -0.4025
H643       H    0.4437234601    0.6586637148    0.0207701143         -0.4042
N644       N    0.5989653025    0.7098960278   -0.0134700634         -0.3996
C599       C    0.5000000000    1.1483736859    0.0000000000          0.5919
C600       C    0.5071119985    1.1666169513    0.0329794531         -0.4051
C601       C    0.5088995917    1.2051611269    0.0361796504         -0.4043
C602       C    0.5028312014    1.2297865079    0.0055348879          -0.407
C603       C    0.4961590969    1.2096627716   -0.0279835740          0.5906
C604       C    0.4948733820    1.1708706290   -0.0308551779          0.5902
C605       C    0.5023135125    1.2704660042    0.0058955619           0.592
N606       N    0.5185743130    1.2136601087    0.0725562305         -0.3992
H607       H    0.5121277407    1.1493149078    0.0589028805          -0.403
H608       H    0.4889365869    1.1578023602   -0.0589171838          0.5877
H609       H    0.4900492316    1.2232565352   -0.0554400612          0.5876
H610       H    0.5408278161    1.2324302331    0.0772373956         -0.3792
H611       H    0.4971691716    1.2218356873    0.0911393383          0.5789
C612       C    0.5023901576    1.2948922906    0.0375775482          0.5885
C613       C    0.4995849584    1.3347530939    0.0350756784          0.5857
C614       C    0.5000000000    1.3516263141    0.0000000000          0.5895
C615       C    0.5000440530    1.3287440863   -0.0310459938         -0.4069
C616       C    0.5007348736    1.2902836124   -0.0280730794         -0.4061
Cl617     Cl    0.4914795398    1.3671517985    0.0744409131          0.5736
C618       C    0.5036452958    1.2907830209    0.0694908630          0.5863
H619       H    0.5012250142    1.2766635581   -0.0562114234         -0.4025
H620       H    0.4998164269    1.3413362852   -0.0599867726         -0.4042
N621       N    0.5219274949    1.2901039722    0.0974410523         -0.3996
C576       C    0.5000000000    1.0000000000   -0.3516263141          0.5919
C577       C    0.4966959701    1.0335754111   -0.3333830487         -0.4051
C578       C    0.4952850492    1.0369586130   -0.2948388731         -0.4043
C579       C    0.4978185706    1.0058216880   -0.2702134921          -0.407
C580       C    0.5006240991    0.9717609587   -0.2903372284          0.5906
C581       C    0.5015738955    0.9687614490   -0.3291293710          0.5902
C582       C    0.4983740187    1.0061209619   -0.2295339958           0.592
N583       N    0.4898224886    1.0742012800   -0.2863398913         -0.3992
H584       H    0.4946697233    1.0599017494   -0.3506850922          -0.403
H585       H    0.5042712633    0.9402054353   -0.3421976398          0.5877
H586       H    0.5035624717    0.9437867723   -0.2767434648          0.5876
H587       H    0.4682481311    1.0813900772   -0.2675697669         -0.3792
H588       H    0.5132074874    1.0902216984   -0.2781643127          0.5789
C589       C    0.5019114445    1.0376049380   -0.2051077094          0.5885
C590       C    0.5044129801    1.0347994409   -0.1652469061          0.5857
C591       C    0.5000000000    1.0000000000   -0.1483736859          0.5895
C592       C    0.4964152035    0.9691616326   -0.1712559137         -0.4069
C593       C    0.4960679745    0.9721939395   -0.2097163876         -0.4061
Cl594     Cl    0.5169554074    1.0729832991   -0.1328482015          0.5736
C595       C    0.5043044527    1.0694531490   -0.2092169791          0.5863
H596       H    0.4923716411    0.9442951266   -0.2233364419         -0.4025
H597       H    0.4933404289    0.9403837547   -0.1586637148         -0.4042
N598       N    0.4893294917    1.0993061627   -0.2098960278         -0.3996
C553       C    0.5000000000    1.0000000000    0.3516263141          0.5919
C554       C    0.4664245889    1.0033040299    0.3333830487         -0.4051
C555       C    0.4630413870    1.0047149508    0.2948388731         -0.4043
C556       C    0.4941783120    1.0021814294    0.2702134921          -0.407
C557       C    0.5282390413    0.9993759009    0.2903372284          0.5906
C558       C    0.5312385510    0.9984261045    0.3291293710          0.5902
C559       C    0.4938790381    1.0016259813    0.2295339958           0.592
N560       N    0.4257987200    1.0101775114    0.2863398913         -0.3992
H561       H    0.4400982506    1.0053302767    0.3506850922          -0.403
H562       H    0.5597945647    0.9957287367    0.3421976398          0.5877
H563       H    0.5562132277    0.9964375283    0.2767434648          0.5876
H564       H    0.4186099228    1.0317518689    0.2675697669         -0.3792
H565       H    0.4097783016    0.9867925126    0.2781643127          0.5789
C566       C    0.4623950620    0.9980885555    0.2051077094          0.5885
C567       C    0.4652005591    0.9955870199    0.1652469061          0.5857
C568       C    0.5000000000    1.0000000000    0.1483736859          0.5895
C569       C    0.5308383674    1.0035847965    0.1712559137         -0.4069
C570       C    0.5278060605    1.0039320255    0.2097163876         -0.4061
Cl571     Cl    0.4270167009    0.9830445926    0.1328482015          0.5736
C572       C    0.4305468510    0.9956955473    0.2092169791          0.5863
H573       H    0.5557048734    1.0076283589    0.2233364419         -0.4025
H574       H    0.5596162453    1.0066595711    0.1586637148         -0.4042
N575       N    0.4006938373    1.0106705083    0.2098960278         -0.3996
C530       C    0.8516263141    0.5000000000    0.5000000000          0.5919
C531       C    0.8333830487    0.4716790127    0.5183342991         -0.4051
C532       C    0.7948388731    0.4693196538    0.5211396829         -0.4043
C533       C    0.7702134921    0.4958270859    0.5046084133          -0.407
C534       C    0.7903372284    0.5248079644    0.4864945250          0.5906
C535       C    0.8291293710    0.5270378404    0.4842748797          0.5902
C536       C    0.7295339958    0.4953064032    0.5042520748           0.592
N537       N    0.7863398913    0.4387297534    0.5430739895         -0.3992
H538       H    0.8506850922    0.4492137897    0.5322085745          -0.403
H539       H    0.8421976398    0.5511766429    0.4687816580          0.5877
H540       H    0.7767434648    0.5483192065    0.4710539734          0.5876
H541       H    0.7675697669    0.4422358878    0.5655426059         -0.3792
H542       H    0.7781643127    0.4137687199    0.5296404946          0.5789
C543       C    0.7051077094    0.4657063356    0.5155476545          0.5885
C544       C    0.6652469061    0.4670521526    0.5120380575          0.5857
C545       C    0.6483736859    0.5000000000    0.5000000000          0.5895
C546       C    0.6712559137    0.5290480826    0.4890426020         -0.4069
C547       C    0.7097163876    0.5265127148    0.4907418265         -0.4061
Cl548     Cl    0.6328482015    0.4273684997    0.5184041561          0.5736
C549       C    0.7092169791    0.4363074445    0.5280272472          0.5863
H550       H    0.7233364419    0.5529997604    0.4812316711         -0.4025
H551       H    0.6586637148    0.5560312388    0.4785769547         -0.4042
N552       N    0.7098960278    0.4166467848    0.5550255869         -0.3996
C507       C    1.1483736859    0.5000000000    0.5000000000          0.5919
C508       C    1.1666169513    0.5316600317    0.4883437896         -0.4051
C509       C    1.2051611269    0.5353199541    0.4881395328         -0.4043
C510       C    1.2297865079    0.5061904791    0.4994267167          -0.407
C511       C    1.2096627716    0.4743108414    0.5117430865          0.5906
C512       C    1.1708706290    0.4711971996    0.5121952001          0.5902
C513       C    1.2704660042    0.5062178179    0.4987963674           0.592
N514       N    1.2136601087    0.5712213396    0.4768281964         -0.3992
H515       H    1.1493149078    0.5562385858    0.4786961764          -0.403
H516       H    1.1578023602    0.4443193406    0.5222103091          0.5877
H517       H    1.2232565352    0.4478516548    0.5212877493          0.5876
H518       H    1.2324302331    0.5870925520    0.4931142738         -0.3792
H519       H    1.2218356873    0.5754511637    0.4487992727          0.5789
C520       C    1.2948922906    0.5330143222    0.4818936611          0.5885
C521       C    1.3347530939    0.5293991544    0.4808645566          0.5857
C522       C    1.3516263141    0.5000000000    0.5000000000          0.5895
C523       C    1.3287440863    0.4738052321    0.5166640273         -0.4069
C524       C    1.2902836124    0.4766858323    0.5156552677         -0.4061
Cl525     Cl    1.3671517985    0.5583022250    0.4529372935          0.5736
C526       C    1.2907830209    0.5606373311    0.4658623039          0.5863
H527       H    1.2766635581    0.4531854806    0.5311388110         -0.4025
H528       H    1.3413362852    0.4492428205    0.5319711638         -0.4042
N529       N    1.2901039722    0.5940323987    0.4663327800         -0.3996
C484       C    0.6483736859    0.5000000000    0.0000000000          0.5919
C485       C    0.6666169513    0.5163295776   -0.0295223601         -0.4051
C486       C    0.7051611269    0.5189648860   -0.0320702812         -0.4043
C487       C    0.7297865079    0.5043084549   -0.0044819529          -0.407
C488       C    0.7096627716    0.4882444452    0.0256834554          0.5906
C489       C    0.6708706290    0.4861845054    0.0280616522          0.5902
C490       C    0.7704660042    0.5039169233   -0.0049767160           0.592
N491       N    0.7136601087    0.5387287507   -0.0641053474         -0.3992
H492       H    0.6493149078    0.5286152414   -0.0528942283          -0.403
H493       H    0.6578023602    0.4723996456    0.0532151679          0.5877
H494       H    0.7232565352    0.4744686816    0.0502072700          0.5876
H495       H    0.7324302331    0.5613861931   -0.0621631815         -0.3792
H496       H    0.7218356873    0.5235993769   -0.0880764554          0.5789
C497       C    0.7948922906    0.5131361166   -0.0352877800          0.5885
C498       C    0.8347530939    0.5097281148   -0.0337022145          0.5857
C499       C    0.8516263141    0.5000000000    0.0000000000          0.5895
C500       C    0.8287440863    0.4910799617    0.0297369902         -0.4069
C501       C    0.7902836124    0.4925995794    0.0270900646         -0.4061
Cl502     Cl    0.8671517985    0.5133315444   -0.0737313889          0.5736
C503       C    0.7907830209    0.5235504100   -0.0654801222          0.5863
H504       H    0.7766635581    0.4849460044    0.0541719668         -0.4025
H505       H    0.8413362852    0.4825075343    0.0573799637         -0.4042
N506       N    0.7901039722    0.5491228145   -0.0869627667         -0.3996
C461       C    1.1483736859    0.5000000000    0.0000000000          0.5919
C462       C    1.1666169513    0.4729995125    0.0202286560         -0.4051
C463       C    1.2051611269    0.4695510939    0.0214717012         -0.4043
C464       C    1.2297865079    0.4942324505    0.0023207883          -0.407
C465       C    1.2096627716    0.5212544479   -0.0186032630          0.5906
C466       C    1.1708706290    0.5241085036   -0.0199274753          0.5902
C467       C    1.2704660042    0.4943866369    0.0029326005           0.592
N468       N    1.2136601087    0.4383879308    0.0425836191         -0.3992
H469       H    1.1493149078    0.4522095806    0.0365062630          -0.403
H470       H    1.1578023602    0.5469964232   -0.0372151833          0.5877
H471       H    1.2232565352    0.5438758272   -0.0353203901          0.5876
H472       H    1.2324302331    0.4185199778    0.0315203398         -0.3792
H473       H    1.2218356873    0.4423558010    0.0706508238          0.5789
C474       C    1.2948922906    0.4735476374    0.0267965948          0.5885
C475       C    1.3347530939    0.4773061140    0.0267481404          0.5857
C476       C    1.3516263141    0.5000000000    0.0000000000          0.5895
C477       C    1.3287440863    0.5203307278   -0.0234631025         -0.4069
C478       C    1.2902836124    0.5178592591   -0.0216722101         -0.4061
Cl479     Cl    1.3671517985    0.4576034497    0.0617784777          0.5736
C480       C    1.2907830209    0.4516673498    0.0500621927          0.5863
H481       H    1.2766635581    0.5359460571   -0.0432331558         -0.4025
H482       H    1.3413362852    0.5394856527   -0.0451589396         -0.4042
N483       N    1.2901039722    0.4195341884    0.0591677856         -0.3996
C438       C    1.0000000000    0.5000000000   -0.1483736859          0.5919
C439       C    0.9958782691    0.4665151350   -0.1666169513         -0.4051
C440       C    0.9943852737    0.4631673421   -0.2051611269         -0.4043
C441       C    0.9976772665    0.4942332336   -0.2297865079          -0.407
C442       C    1.0013124779    0.5282154276   -0.2096627716          0.5906
C443       C    1.0023351302    0.5311908863   -0.1708706290          0.5902
C444       C    0.9982252522    0.4939205049   -0.2704660042           0.592
N445       N    0.9880162337    0.4260689440   -0.2136601087         -0.3992
H446       H    0.9932106988    0.4402460310   -0.1493149078          -0.403
H447       H    1.0057279892    0.5596726386   -0.1578023602          0.5877
H448       H    1.0049320831    0.5561096492   -0.2232565352          0.5876
H449       H    0.9662730033    0.4194083408   -0.2324302331         -0.3792
H450       H    1.0110036471    0.4094830826   -0.2218356873          0.5789
C451       C    1.0009939393    0.4623596352   -0.2948922906          0.5885
C452       C    1.0035631388    0.4651033022   -0.3347530939          0.5857
C453       C    1.0000000000    0.5000000000   -0.3516263141          0.5895
C454       C    0.9971682141    0.5309166081   -0.3287440863         -0.4069
C455       C    0.9967471504    0.5278936694   -0.2902836124         -0.4061
Cl456     Cl    1.0151707840    0.4266249695   -0.3671517985          0.5736
C457       C    1.0026096677    0.4304625435   -0.2907830209          0.5863
H458       H    0.9937321843    0.5558743167   -0.2766635581         -0.4025
H459       H    0.9947960568    0.5597609033   -0.3413362852         -0.4042
N460       N    0.9869112406    0.4009835464   -0.2901039722         -0.3996
C415       C    1.0000000000    0.5000000000    0.3516263141          0.5919
C416       C    1.0335754111    0.4966959701    0.3333830487         -0.4051
C417       C    1.0369586130    0.4952850492    0.2948388731         -0.4043
C418       C    1.0058216880    0.4978185706    0.2702134921          -0.407
C419       C    0.9717609587    0.5006240991    0.2903372284          0.5906
C420       C    0.9687614490    0.5015738955    0.3291293710          0.5902
C421       C    1.0061209619    0.4983740187    0.2295339958           0.592
N422       N    1.0742012800    0.4898224886    0.2863398913         -0.3992
H423       H    1.0599017494    0.4946697233    0.3506850922          -0.403
H424       H    0.9402054353    0.5042712633    0.3421976398          0.5877
H425       H    0.9437867723    0.5035624717    0.2767434648          0.5876
H426       H    1.0813900772    0.4682481311    0.2675697669         -0.3792
H427       H    1.0902216984    0.5132074874    0.2781643127          0.5789
C428       C    1.0376049380    0.5019114445    0.2051077094          0.5885
C429       C    1.0347994409    0.5044129801    0.1652469061          0.5857
C430       C    1.0000000000    0.5000000000    0.1483736859          0.5895
C431       C    0.9691616326    0.4964152035    0.1712559137         -0.4069
C432       C    0.9721939395    0.4960679745    0.2097163876         -0.4061
Cl433     Cl    1.0729832991    0.5169554074    0.1328482015          0.5736
C434       C    1.0694531490    0.5043044527    0.2092169791          0.5863
H435       H    0.9442951266    0.4923716411    0.2233364419         -0.4025
H436       H    0.9403837547    0.4933404289    0.1586637148         -0.4042
N437       N    1.0993061627    0.4893294917    0.2098960278         -0.3996
C392       C    1.0000000000   -0.1483736859    0.5000000000          0.5919
C393       C    1.0335754111   -0.1666169513    0.5033040299         -0.4051
C394       C    1.0369586130   -0.2051611269    0.5047149508         -0.4043
C395       C    1.0058216880   -0.2297865079    0.5021814294          -0.407
C396       C    0.9717609587   -0.2096627716    0.4993759009          0.5906
C397       C    0.9687614490   -0.1708706290    0.4984261045          0.5902
C398       C    1.0061209619   -0.2704660042    0.5016259813           0.592
N399       N    1.0742012800   -0.2136601087    0.5101775114         -0.3992
H400       H    1.0599017494   -0.1493149078    0.5053302767          -0.403
H401       H    0.9402054353   -0.1578023602    0.4957287367          0.5877
H402       H    0.9437867723   -0.2232565352    0.4964375283          0.5876
H403       H    1.0813900772   -0.2324302331    0.5317518689         -0.3792
H404       H    1.0902216984   -0.2218356873    0.4867925126          0.5789
C405       C    1.0376049380   -0.2948922906    0.4980885555          0.5885
C406       C    1.0347994409   -0.3347530939    0.4955870199          0.5857
C407       C    1.0000000000   -0.3516263141    0.5000000000          0.5895
C408       C    0.9691616326   -0.3287440863    0.5035847965         -0.4069
C409       C    0.9721939395   -0.2902836124    0.5039320255         -0.4061
Cl410     Cl    1.0729832991   -0.3671517985    0.4830445926          0.5736
C411       C    1.0694531490   -0.2907830209    0.4956955473          0.5863
H412       H    0.9442951266   -0.2766635581    0.5076283589         -0.4025
H413       H    0.9403837547   -0.3413362852    0.5066595711         -0.4042
N414       N    1.0993061627   -0.2901039722    0.5106705083         -0.3996
C369       C    1.0000000000    0.1483736859    0.5000000000          0.5919
C370       C    0.9664245889    0.1666169513    0.5033040299         -0.4051
C371       C    0.9630413870    0.2051611269    0.5047149508         -0.4043
C372       C    0.9941783120    0.2297865079    0.5021814294          -0.407
C373       C    1.0282390413    0.2096627716    0.4993759009          0.5906
C374       C    1.0312385510    0.1708706290    0.4984261045          0.5902
C375       C    0.9938790381    0.2704660042    0.5016259813           0.592
N376       N    0.9257987200    0.2136601087    0.5101775114         -0.3992
H377       H    0.9400982506    0.1493149078    0.5053302767          -0.403
H378       H    1.0597945647    0.1578023602    0.4957287367          0.5877
H379       H    1.0562132277    0.2232565352    0.4964375283          0.5876
H380       H    0.9186099228    0.2324302331    0.5317518689         -0.3792
H381       H    0.9097783016    0.2218356873    0.4867925126          0.5789
C382       C    0.9623950620    0.2948922906    0.4980885555          0.5885
C383       C    0.9652005591    0.3347530939    0.4955870199          0.5857
C384       C    1.0000000000    0.3516263141    0.5000000000          0.5895
C385       C    1.0308383674    0.3287440863    0.5035847965         -0.4069
C386       C    1.0278060605    0.2902836124    0.5039320255         -0.4061
Cl387     Cl    0.9270167009    0.3671517985    0.4830445926          0.5736
C388       C    0.9305468510    0.2907830209    0.4956955473          0.5863
H389       H    1.0557048734    0.2766635581    0.5076283589         -0.4025
H390       H    1.0596162453    0.3413362852    0.5066595711         -0.4042
N391       N    0.9006938373    0.2901039722    0.5106705083         -0.3996
C346       C    0.8516263141   -0.0000000000    0.5000000000          0.5919
C347       C    0.8333830487    0.0337247495    0.5009306552         -0.4051
C348       C    0.7948388731    0.0372581241    0.4999549416         -0.4043
C349       C    0.7702134921    0.0060492098    0.4985655155          -0.407
C350       C    0.7903372284   -0.0280945436    0.4970794568          0.5906
C351       C    0.8291293710   -0.0311894511    0.4976457781          0.5902
C352       C    0.7295339958    0.0062764988    0.4991540962           0.592
N353       N    0.7863398913    0.0748917734    0.4992037757         -0.3992
H354       H    0.8506850922    0.0600974330    0.5022203554          -0.403
H355       H    0.8421976398   -0.0598583480    0.4967424193          0.5877
H356       H    0.7767434648   -0.0562164119    0.4964881332          0.5876
H357       H    0.7675697669    0.0847281831    0.4787006845         -0.3792
H358       H    0.7781643127    0.0878545620    0.5244124663          0.5789
C359       C    0.7051077094    0.0370687429    0.5066100889          0.5885
C360       C    0.6652469061    0.0339718098    0.5087402297          0.5857
C361       C    0.6483736859   -0.0000000000    0.5000000000          0.5895
C362       C    0.6712559137   -0.0301457898    0.4925779363         -0.4069
C363       C    0.7097163876   -0.0270938747    0.4926135409         -0.4061
Cl364     Cl    0.6328482015    0.0702823299    0.5259700192          0.5736
C365       C    0.7092169791    0.0683658003    0.5129763466          0.5863
H366       H    0.7233364419   -0.0543093139    0.4854492885         -0.4025
H367       H    0.6586637148   -0.0583112720    0.4859201509         -0.4042
N368       N    0.7098960278    0.0998604447    0.5018615251         -0.3996
C323       C    1.3516263141   -0.0000000000    0.5000000000          0.5919
C324       C    1.3333830487    0.0288313025    0.5175208687         -0.4051
C325       C    1.2948388731    0.0323838269    0.5184243750         -0.4043
C326       C    1.2702134921    0.0059650645    0.5017517680          -0.407
C327       C    1.2903372284   -0.0229549407    0.4835408492          0.5906
C328       C    1.3291293710   -0.0259237462    0.4824990400          0.5902
C329       C    1.2295339958    0.0058708070    0.5023756294           0.592
N330       N    1.2863398913    0.0654437421    0.5364215363         -0.3992
H331       H    1.3506850922    0.0510988527    0.5317102299          -0.403
H332       H    1.3421976398   -0.0503771855    0.4675073417          0.5877
H333       H    1.2767434648   -0.0470878754    0.4690912606          0.5876
H334       H    1.2675697669    0.0841478512    0.5234875497         -0.3792
H335       H    1.2781643127    0.0642105696    0.5647409865          0.5789
C336       C    1.2051077094    0.0289213324    0.5241110246          0.5885
C337       C    1.1652469061    0.0251758064    0.5244265071          0.5857
C338       C    1.1483736859   -0.0000000000    0.5000000000          0.5895
C339       C    1.1712559137   -0.0225058446    0.4786144294         -0.4069
C340       C    1.2097163876   -0.0198726698    0.4801577516         -0.4061
Cl341     Cl    1.1328482015    0.0481759016    0.5573858022          0.5736
C342       C    1.2092169791    0.0529503518    0.5451500660          0.5863
H343       H    1.2233364419   -0.0399610435    0.4604482645         -0.4025
H344       H    1.1586637148   -0.0436703857    0.4588740471         -0.4042
N345       N    1.2098960278    0.0858138557    0.5511033841         -0.3996
C300       C   -0.0000000000   -0.1483736859    0.0000000000          0.5919
C301       C    0.0325490111   -0.1666169513    0.0088761884         -0.4051
C302       C    0.0356483895   -0.2051611269    0.0108333819         -0.4043
C303       C    0.0053745345   -0.2297865079    0.0031249103          -0.407
C304       C   -0.0277363736   -0.2096627716   -0.0053410232          0.5906
C305       C   -0.0305346386   -0.1708706290   -0.0067793852          0.5902
C306       C    0.0057625408   -0.2704660042    0.0026273777           0.592
N307       N    0.0714517168   -0.2136601087    0.0224513666         -0.3992
H308       H    0.0581650091   -0.1493149078    0.0152795007          -0.403
H309       H   -0.0582365589   -0.1578023602   -0.0142174844          0.5877
H310       H   -0.0548243402   -0.2232565352   -0.0129193614          0.5876
H311       H    0.0749287289   -0.2324302331    0.0449245081         -0.3792
H312       H    0.0911596302   -0.2218356873    0.0020771151          0.5789
C313       C    0.0373945088   -0.2948922906    0.0044085926          0.5885
C314       C    0.0350471998   -0.3347530939    0.0014728414          0.5857
C315       C   -0.0000000000   -0.3516263141    0.0000000000          0.5895
C316       C   -0.0310033911   -0.3287440863   -0.0016264714         -0.4069
C317       C   -0.0280719536   -0.2902836124   -0.0007766909         -0.4061
Cl318     Cl    0.0747915305   -0.3671517985   -0.0045027501          0.5736
C319       C    0.0691940603   -0.2907830209    0.0073790403          0.5863
H320       H   -0.0561959091   -0.2766635581   -0.0018012719         -0.4025
H321       H   -0.0598899989   -0.3413362852   -0.0034109552         -0.4042
N322       N    0.0961200693   -0.2901039722    0.0271386437         -0.3996
C277       C    0.0000000000    0.1483736859    0.0000000000          0.5919
C278       C    0.0009076974    0.1666169513    0.0337253752         -0.4051
C279       C    0.0020744236    0.2051611269    0.0372003576         -0.4043
C280       C    0.0017618524    0.2297865079    0.0059620937          -0.407
C281       C    0.0013859111    0.2096627716   -0.0282119159          0.5906
C282       C    0.0006518525    0.1708706290   -0.0312713816          0.5902
C283       C    0.0011865258    0.2704660042    0.0062211049           0.592
N284       N    0.0048743613    0.2136601087    0.0747372216         -0.3992
H285       H    0.0010564193    0.1493149078    0.0601291560          -0.403
H286       H   -0.0000077110    0.1578023602   -0.0599469232          0.5877
H287       H    0.0004445722    0.2232565352   -0.0563242446          0.5876
H288       H    0.0258827988    0.2324302331    0.0834422349         -0.3792
H289       H   -0.0195908285    0.2218356873    0.0890538715          0.5789
C290       C   -0.0045811592    0.2948922906    0.0373737603          0.5885
C291       C   -0.0068768260    0.3347530939    0.0343974525          0.5857
C292       C    0.0000000000    0.3516263141    0.0000000000          0.5895
C293       C    0.0057690185    0.3287440863   -0.0305053126         -0.4069
C294       C    0.0058997031    0.2902836124   -0.0274559889         -0.4061
Cl295     Cl   -0.0221032202    0.3671517985    0.0715925656          0.5736
C296       C   -0.0092332299    0.2907830209    0.0689711221          0.5863
H297       H    0.0115709077    0.2766635581   -0.0550212584         -0.4025
H298       H    0.0108827595    0.3413362852   -0.0589916277         -0.4042
N299       N    0.0035805890    0.2901039722    0.0998135917         -0.3996
C254       C   -0.1483736859   -0.0000000000    0.0000000000          0.5919
C255       C   -0.1666169513   -0.0141278482    0.0306370487         -0.4051
C256       C   -0.2051611269   -0.0146214215    0.0342692847         -0.4043
C257       C   -0.2297865079   -0.0010619241    0.0061256022          -0.407
C258       C   -0.2096627716    0.0137414068   -0.0246780609          0.5906
C259       C   -0.1708706290    0.0144387786   -0.0277460969          0.5902
C260       C   -0.2704660042   -0.0016924579    0.0061029154           0.592
N261       N   -0.2136601087   -0.0287415023    0.0691616782         -0.3992
H262       H   -0.1493149078   -0.0256923803    0.0543740105          -0.403
H263       H   -0.1578023602    0.0265518146   -0.0537460213          0.5877
H264       H   -0.2232565352    0.0253523059   -0.0502979002          0.5876
H265       H   -0.2324302331   -0.0137640183    0.0862732731         -0.3792
H266       H   -0.2218356873   -0.0570174328    0.0711576063          0.5789
C267       C   -0.2948922906   -0.0206649963    0.0314760688          0.5885
C268       C   -0.3347530939   -0.0214044533    0.0277907333          0.5857
C269       C   -0.3516263141   -0.0000000000    0.0000000000          0.5895
C270       C   -0.3287440863    0.0186869368   -0.0247922178         -0.4069
C271       C   -0.2902836124    0.0174531316   -0.0220005914         -0.4061
Cl272     Cl   -0.3671517985   -0.0515337887    0.0543904073          0.5736
C273       C   -0.2907830209   -0.0388344046    0.0577421617          0.5863
H274       H   -0.2766635581    0.0347498290   -0.0442003864         -0.4025
H275       H   -0.3413362852    0.0358919240   -0.0480647103         -0.4042
N276       N   -0.2901039722   -0.0410111424    0.0910695333         -0.3996
C231       C    0.3516263141   -0.0000000000    0.0000000000          0.5919
C232       C    0.3333830487   -0.0333212741    0.0052837049         -0.4051
C233       C    0.2948388731   -0.0366151218    0.0068922199         -0.4043
C234       C    0.2702134921   -0.0056825030    0.0025218732          -0.407
C235       C    0.2903372284    0.0281527184   -0.0022929016          0.5906
C236       C    0.3291293710    0.0310908137   -0.0034184097          0.5902
C237       C    0.2295339958   -0.0060140993    0.0019850944           0.592
N238       N    0.2863398913   -0.0734695911    0.0145475387         -0.3992
H239       H    0.3506850922   -0.0594817217    0.0088631942          -0.403
H240       H    0.3421976398    0.0594373486   -0.0077996958          0.5877
H241       H    0.2767434648    0.0559041926   -0.0068803649          0.5876
H242       H    0.2675697669   -0.0793700246    0.0365092460         -0.3792
H243       H    0.2781643127   -0.0908448288   -0.0078491818          0.5789
C244       C    0.2051077094   -0.0376521626    0.0003156404          0.5885
C245       C    0.1652469061   -0.0349995015   -0.0023474186          0.5857
C246       C    0.1483736859   -0.0000000000    0.0000000000          0.5895
C247       C    0.1712559137    0.0309963857    0.0017549194         -0.4069
C248       C    0.2097163876    0.0279899184    0.0022808539         -0.4061
Cl249     Cl    0.1328482015   -0.0738582266   -0.0126099230          0.5736
C250       C    0.2092169791   -0.0695861493   -0.0001898598          0.5863
H251       H    0.2233364419    0.0560584893    0.0043209434         -0.4025
H252       H    0.1586637148    0.0599057279    0.0031225548         -0.4042
N253       N    0.2098960278   -0.0985013882    0.0165242314         -0.3996
C208       C    0.0000000000    0.0000000000   -0.1483736859          0.5919
C209       C   -0.0335704177    0.0033543851   -0.1666169513         -0.4051
C210       C   -0.0369514996    0.0047703787   -0.2051611269         -0.4043
C211       C   -0.0058184096    0.0021901588   -0.2297865079          -0.407
C212       C    0.0282380734   -0.0006664534   -0.2096627716          0.5906
C213       C    0.0312361553   -0.0016207476   -0.1708706290          0.5902
C214       C   -0.0061185163    0.0016351601   -0.2704660042           0.592
N215       N   -0.0741859316    0.0102887925   -0.2136601087         -0.3992
H216       H   -0.0598936873    0.0054201157   -0.1493149078          -0.403
H217       H    0.0597880911   -0.0043609428   -0.1578023602          0.5877
H218       H    0.0562078212   -0.0036467804   -0.2232565352          0.5876
H219       H   -0.0813423619    0.0318739080   -0.2324302331         -0.3792
H220       H   -0.0902414065   -0.0130721514   -0.2218356873          0.5789
C221       C   -0.0376077626   -0.0018550397   -0.2948922906          0.5885
C222       C   -0.0348060206   -0.0043607804   -0.3347530939          0.5857
C223       C    0.0000000000    0.0000000000   -0.3516263141          0.5895
C224       C    0.0308437095    0.0035385388   -0.3287440863         -0.4069
C225       C    0.0278119268    0.0038903155   -0.2902836124         -0.4061
Cl226     Cl   -0.0730086480   -0.0168459226   -0.3671517985          0.5736
C227       C   -0.0694595270   -0.0042002769   -0.2907830209          0.5863
H228       H    0.0557162523    0.0075448001   -0.2766635581         -0.4025
H229       H    0.0596261667    0.0065701468   -0.3413362852         -0.4042
N230       N   -0.0992900466    0.0108194430   -0.2901039722         -0.3996
C185       C   -0.0000000000    0.0000000000    0.1483736859          0.5919
C186       C    0.0336388262   -0.0025795769    0.1666169513         -0.4051
C187       C    0.0372157075   -0.0017779078    0.2051611269         -0.4043
C188       C    0.0061121496    0.0011367994    0.2297865079          -0.407
C189       C   -0.0279180048    0.0042916151    0.2096627716          0.5906
C190       C   -0.0310369139    0.0038773953    0.1708706290          0.5902
C191       C    0.0063103691    0.0005378031    0.2704660042           0.592
N192       N    0.0748410379   -0.0028689268    0.2136601087         -0.3992
H193       H    0.0599168246   -0.0051580575    0.1493149078          -0.403
H194       H   -0.0596272781    0.0061823429    0.1578023602          0.5877
H195       H   -0.0559772623    0.0062581371    0.2232565352          0.5876
H196       H    0.0856688132    0.0171283477    0.2324302331         -0.3792
H197       H    0.0865549273   -0.0286816518    0.2218356873          0.5789
C198       C    0.0367009396   -0.0084158190    0.2948922906          0.5885
C199       C    0.0335034950   -0.0103918863    0.3347530939          0.5857
C200       C   -0.0000000000    0.0000000000    0.3516263141          0.5895
C201       C   -0.0297465504    0.0088881050    0.3287440863         -0.4069
C202       C   -0.0267000324    0.0087032233    0.2902836124         -0.4061
Cl203     Cl    0.0689275343   -0.0293775903    0.3671517985          0.5736
C204       C    0.0676490358   -0.0163057099    0.2907830209          0.5863
H205       H   -0.0535323554    0.0171904536    0.2766635581         -0.4025
H206       H   -0.0575525584    0.0169159572    0.3413362852         -0.4042
N207       N    0.0996497717   -0.0067451247    0.2901039722         -0.3996
loop_
_geom_bond_atom_site_label_1
_geom_bond_atom_site_label_2
_geom_bond_distance
_geom_bond_site_symmetry_2
_ccdc_geom_bond_type
Zn1          O5 1.942       .   S
Zn1          O6 1.922       .   S
Zn1         O10 1.922       .   S
Zn1         O17 1.922       .   S
Zn2          O5 1.942       .   S
Zn2          O7 1.922       .   S
Zn2          O9 1.922       .   S
Zn2         O13 1.922       .   S
Zn3          O5 1.942       .   S
Zn3          O8 1.922       .   S
Zn3         O11 1.922       .   S
Zn3         O14 1.922       .   S
Zn4          O5 1.942       .   S
Zn4         O12 1.922       .   S
Zn4         O15 1.922       .   S
Zn4         O16 1.922       .   S
O6          C18 1.304       .   A
O7          C19 1.304       .   A
O8          C20 1.304       .   A
O9          C18 1.304       .   A
O10         C20 1.304       .   A
O11         C19 1.304       .   A
O12         C21 1.304       .   A
O13         C22 1.304       .   A
O14         C21 1.304       .   A
O15         C22 1.304       .   A
O16         C23 1.304       .   A
O17         C23 1.304       .   A
C18        C185 1.540       .   S
C19        C246 1.540       .   S
C20        C300 1.540       .   S
C21        C208 1.540       .   S
C22        C277 1.540       .   S
C23        C254 1.540       .   S
Zn24        O28 1.942       .   S
Zn24        O29 1.922       .   S
Zn24        O33 1.922       .   S
Zn24        O40 1.922       .   S
Zn25        O28 1.942       .   S
Zn25        O30 1.922       .   S
Zn25        O32 1.922       .   S
Zn25        O36 1.922       .   S
Zn26        O28 1.942       .   S
Zn26        O31 1.922       .   S
Zn26        O34 1.922       .   S
Zn26        O37 1.922       .   S
Zn27        O28 1.942       .   S
Zn27        O35 1.922       .   S
Zn27        O38 1.922       .   S
Zn27        O39 1.922       .   S
O29         C41 1.304       .   A
O30         C42 1.304       .   A
O31         C43 1.304       .   A
O32         C41 1.304       .   A
O33         C43 1.304       .   A
O34         C42 1.304       .   A
O35         C44 1.304       .   A
O36         C45 1.304       .   A
O37         C44 1.304       .   A
O38         C45 1.304       .   A
O39         C46 1.304       .   A
O40         C46 1.304       .   A
C41        C200 1.540   1_655   S
C42        C338 1.540       .   S
C43        C369 1.540       .   S
C44        C223 1.540   1_656   S
C45        C392 1.540       .   S
C46        C346 1.540       .   S
Zn47        O51 1.942       .   S
Zn47        O52 1.922       .   S
Zn47        O56 1.922       .   S
Zn47        O63 1.922       .   S
Zn48        O51 1.942       .   S
Zn48        O53 1.922       .   S
Zn48        O55 1.922       .   S
Zn48        O59 1.922       .   S
Zn49        O51 1.942       .   S
Zn49        O54 1.922       .   S
Zn49        O57 1.922       .   S
Zn49        O60 1.922       .   S
Zn50        O51 1.942       .   S
Zn50        O58 1.922       .   S
Zn50        O61 1.922       .   S
Zn50        O62 1.922       .   S
O52         C64 1.304       .   A
O53         C65 1.304       .   A
O54         C66 1.304       .   A
O55         C64 1.304       .   A
O56         C66 1.304       .   A
O57         C65 1.304       .   A
O58         C67 1.304       .   A
O59         C68 1.304       .   A
O60         C67 1.304       .   A
O61         C68 1.304       .   A
O62         C69 1.304       .   A
O63         C69 1.304       .   A
C64        C499 1.540       .   S
C65        C315 1.540   1_665   S
C66        C430 1.540       .   S
C67        C461 1.540       .   S
C68        C438 1.540       .   S
C69        C292 1.540   1_655   S
Zn70        O74 1.942       .   S
Zn70        O75 1.922       .   S
Zn70        O79 1.922       .   S
Zn70        O86 1.922       .   S
Zn71        O74 1.942       .   S
Zn71        O76 1.922       .   S
Zn71        O78 1.922       .   S
Zn71        O82 1.922       .   S
Zn72        O74 1.942       .   S
Zn72        O77 1.922       .   S
Zn72        O80 1.922       .   S
Zn72        O83 1.922       .   S
Zn73        O74 1.942       .   S
Zn73        O81 1.922       .   S
Zn73        O84 1.922       .   S
Zn73        O85 1.922       .   S
O75         C87 1.304       .   A
O76         C88 1.304       .   A
O77         C89 1.304       .   A
O78         C87 1.304       .   A
O79         C89 1.304       .   A
O80         C88 1.304       .   A
O81         C90 1.304       .   A
O82         C91 1.304       .   A
O83         C90 1.304       .   A
O84         C91 1.304       .   A
O85         C92 1.304       .   A
O86         C92 1.304       .   A
C87        C384 1.540       .   S
C88        C415 1.540       .   S
C89        C530 1.540       .   S
C90        C407 1.540   1_565   S
C91        C507 1.540       .   S
C92        C453 1.540   1_556   S
Zn93        O97 1.942       .   S
Zn93        O98 1.922       .   S
Zn93       O102 1.922       .   S
Zn93       O109 1.922       .   S
Zn94        O97 1.942       .   S
Zn94        O99 1.922       .   S
Zn94       O101 1.922       .   S
Zn94       O105 1.922       .   S
Zn95        O97 1.942       .   S
Zn95       O100 1.922       .   S
Zn95       O103 1.922       .   S
Zn95       O106 1.922       .   S
Zn96        O97 1.942       .   S
Zn96       O104 1.922       .   S
Zn96       O107 1.922       .   S
Zn96       O108 1.922       .   S
O98        C110 1.304       .   A
O99        C111 1.304       .   A
O100       C112 1.304       .   A
O101       C110 1.304       .   A
O102       C112 1.304       .   A
O103       C111 1.304       .   A
O104       C113 1.304       .   A
O105       C114 1.304       .   A
O106       C113 1.304       .   A
O107       C114 1.304       .   A
O108       C115 1.304       .   A
O109       C115 1.304       .   A
C110       C231 1.540   1_565   S
C111       C568 1.540       .   S
C112       C622 1.540       .   S
C113       C269 1.540   1_665   S
C114       C599 1.540       .   S
C115       C591 1.540       .   S
Zn116      O120 1.942       .   S
Zn116      O121 1.922       .   S
Zn116      O125 1.922       .   S
Zn116      O132 1.922       .   S
Zn117      O120 1.942       .   S
Zn117      O122 1.922       .   S
Zn117      O124 1.922       .   S
Zn117      O128 1.922       .   S
Zn118      O120 1.942       .   S
Zn118      O123 1.922       .   S
Zn118      O126 1.922       .   S
Zn118      O129 1.922       .   S
Zn119      O120 1.942       .   S
Zn119      O127 1.922       .   S
Zn119      O130 1.922       .   S
Zn119      O131 1.922       .   S
O121       C133 1.304       .   A
O122       C134 1.304       .   A
O123       C135 1.304       .   A
O124       C133 1.304       .   A
O125       C135 1.304       .   A
O126       C134 1.304       .   A
O127       C136 1.304       .   A
O128       C137 1.304       .   A
O129       C136 1.304       .   A
O130       C137 1.304       .   A
O131       C138 1.304       .   A
O132       C138 1.304       .   A
C133       C323 1.540   1_465   S
C134       C553 1.540       .   S
C135       C645 1.540       .   S
C136       C361 1.540   1_565   S
C137       C668 1.540       .   S
C138       C576 1.540   1_556   S
Zn139      O143 1.942       .   S
Zn139      O144 1.922       .   S
Zn139      O148 1.922       .   S
Zn139      O155 1.922       .   S
Zn140      O143 1.942       .   S
Zn140      O145 1.922       .   S
Zn140      O147 1.922       .   S
Zn140      O151 1.922       .   S
Zn141      O143 1.942       .   S
Zn141      O146 1.922       .   S
Zn141      O149 1.922       .   S
Zn141      O152 1.922       .   S
Zn142      O143 1.942       .   S
Zn142      O150 1.922       .   S
Zn142      O153 1.922       .   S
Zn142      O154 1.922       .   S
O144       C156 1.304       .   A
O145       C157 1.304       .   A
O146       C158 1.304       .   A
O147       C156 1.304       .   A
O148       C158 1.304       .   A
O149       C157 1.304       .   A
O150       C159 1.304       .   A
O151       C160 1.304       .   A
O152       C159 1.304       .   A
O153       C160 1.304       .   A
O154       C161 1.304       .   A
O155       C161 1.304       .   A
C156       C484 1.540       .   S
C157       C637 1.540       .   S
C158       C729 1.540       .   S
C159       C476 1.540   1_455   S
C160       C691 1.540       .   S
C161       C614 1.540   1_545   S
Zn162      O166 1.942       .   S
Zn162      O167 1.922       .   S
Zn162      O171 1.922       .   S
Zn162      O178 1.922       .   S
Zn163      O166 1.942       .   S
Zn163      O168 1.922       .   S
Zn163      O170 1.922       .   S
Zn163      O174 1.922       .   S
Zn164      O166 1.942       .   S
Zn164      O169 1.922       .   S
Zn164      O172 1.922       .   S
Zn164      O175 1.922       .   S
Zn165      O166 1.942       .   S
Zn165      O173 1.922       .   S
Zn165      O176 1.922       .   S
Zn165      O177 1.922       .   S
O167       C179 1.304       .   A
O168       C180 1.304       .   A
O169       C181 1.304       .   A
O170       C179 1.304       .   A
O171       C181 1.304       .   A
O172       C180 1.304       .   A
O173       C182 1.304       .   A
O174       C183 1.304       .   A
O175       C182 1.304       .   A
O176       C183 1.304       .   A
O177       C184 1.304       .   A
O178       C184 1.304       .   A
C179       C522 1.540   1_455   S
C180       C660 1.540   1_545   S
C181       C706 1.540       .   S
C182       C545 1.540       .   S
C183       C714 1.540   1_556   S
C184       C683 1.540       .   S
C714       C715 0.036       .   A
C714       C719 0.036       .   A
C715       C716 0.036       .   A
C715       H722 0.030       .   A
C716       C717 0.037       .   A
C716       N721 0.036       .   A
C717       C718 0.037       .   A
C717       C720 0.038       .   A
C718       C719 0.036       .   A
C718       H724 0.029       .   A
C719       H723 0.029       .   A
C720       C727 0.037       .   A
C720       C731 0.037       .   A
N721       H725 0.028       .   A
N721       H726 0.028       .   A
C727       C728 0.037       .   A
C727       C733 0.030       .   A
C728       C729 0.036       .   A
C728      Cl732 0.048       .   A
C729       C730 0.036       .   A
C730       C731 0.036       .   A
C730       H735 0.030       .   A
C731       H734 0.029       .   A
C733       N736 0.031       .   A
C691       C692 0.036       .   A
C691       C696 0.036       .   A
C692       C693 0.036       .   A
C692       H699 0.030       .   A
C693       C694 0.037       .   A
C693       N698 0.036       .   A
C694       C695 0.037       .   A
C694       C697 0.038       .   A
C695       C696 0.036       .   A
C695       H701 0.029       .   A
C696       H700 0.029       .   A
C697       C704 0.037       .   A
C697       C708 0.037       .   A
N698       H702 0.028       .   A
N698       H703 0.028       .   A
C704       C705 0.037       .   A
C704       C710 0.030       .   A
C705       C706 0.036       .   A
C705      Cl709 0.048       .   A
C706       C707 0.036       .   A
C707       C708 0.036       .   A
C707       H712 0.030       .   A
C708       H711 0.029       .   A
C710       N713 0.031       .   A
C668       C669 0.036       .   A
C668       C673 0.036       .   A
C669       C670 0.036       .   A
C669       H676 0.030       .   A
C670       C671 0.037       .   A
C670       N675 0.036       .   A
C671       C672 0.037       .   A
C671       C674 0.038       .   A
C672       C673 0.036       .   A
C672       H678 0.029       .   A
C673       H677 0.029       .   A
C674       C681 0.037       .   A
C674       C685 0.037       .   A
N675       H679 0.028       .   A
N675       H680 0.028       .   A
C681       C682 0.037       .   A
C681       C687 0.030       .   A
C682       C683 0.036       .   A
C682      Cl686 0.048       .   A
C683       C684 0.036       .   A
C684       C685 0.036       .   A
C684       H689 0.030       .   A
C685       H688 0.029       .   A
C687       N690 0.031       .   A
C645       C646 0.036       .   A
C645       C650 0.036       .   A
C646       C647 0.036       .   A
C646       H653 0.030       .   A
C647       C648 0.037       .   A
C647       N652 0.036       .   A
C648       C649 0.037       .   A
C648       C651 0.038       .   A
C649       C650 0.036       .   A
C649       H655 0.029       .   A
C650       H654 0.029       .   A
C651       C658 0.037       .   A
C651       C662 0.037       .   A
N652       H656 0.028       .   A
N652       H657 0.028       .   A
C658       C659 0.037       .   A
C658       C664 0.030       .   A
C659       C660 0.036       .   A
C659      Cl663 0.048       .   A
C660       C661 0.036       .   A
C661       C662 0.036       .   A
C661       H666 0.030       .   A
C662       H665 0.029       .   A
C664       N667 0.031       .   A
C622       C623 0.036       .   A
C622       C627 0.036       .   A
C623       C624 0.036       .   A
C623       H630 0.030       .   A
C624       C625 0.037       .   A
C624       N629 0.036       .   A
C625       C626 0.037       .   A
C625       C628 0.038       .   A
C626       C627 0.036       .   A
C626       H632 0.029       .   A
C627       H631 0.029       .   A
C628       C635 0.037       .   A
C628       C639 0.037       .   A
N629       H633 0.028       .   A
N629       H634 0.028       .   A
C635       C636 0.037       .   A
C635       C641 0.030       .   A
C636       C637 0.036       .   A
C636      Cl640 0.048       .   A
C637       C638 0.036       .   A
C638       C639 0.036       .   A
C638       H643 0.030       .   A
C639       H642 0.029       .   A
C641       N644 0.031       .   A
C599       C600 0.036       .   A
C599       C604 0.036       .   A
C600       C601 0.036       .   A
C600       H607 0.030       .   A
C601       C602 0.037       .   A
C601       N606 0.036       .   A
C602       C603 0.037       .   A
C602       C605 0.038       .   A
C603       C604 0.036       .   A
C603       H609 0.029       .   A
C604       H608 0.029       .   A
C605       C612 0.037       .   A
C605       C616 0.037       .   A
N606       H610 0.028       .   A
N606       H611 0.028       .   A
C612       C613 0.037       .   A
C612       C618 0.030       .   A
C613       C614 0.036       .   A
C613      Cl617 0.048       .   A
C614       C615 0.036       .   A
C615       C616 0.036       .   A
C615       H620 0.030       .   A
C616       H619 0.029       .   A
C618       N621 0.031       .   A
C576       C577 0.036       .   A
C576       C581 0.036       .   A
C577       C578 0.036       .   A
C577       H584 0.030       .   A
C578       C579 0.037       .   A
C578       N583 0.036       .   A
C579       C580 0.037       .   A
C579       C582 0.038       .   A
C580       C581 0.036       .   A
C580       H586 0.029       .   A
C581       H585 0.029       .   A
C582       C589 0.037       .   A
C582       C593 0.037       .   A
N583       H587 0.028       .   A
N583       H588 0.028       .   A
C589       C590 0.037       .   A
C589       C595 0.030       .   A
C590       C591 0.036       .   A
C590      Cl594 0.048       .   A
C591       C592 0.036       .   A
C592       C593 0.036       .   A
C592       H597 0.030       .   A
C593       H596 0.029       .   A
C595       N598 0.031       .   A
C553       C554 0.036       .   A
C553       C558 0.036       .   A
C554       C555 0.036       .   A
C554       H561 0.030       .   A
C555       C556 0.037       .   A
C555       N560 0.036       .   A
C556       C557 0.037       .   A
C556       C559 0.038       .   A
C557       C558 0.036       .   A
C557       H563 0.029       .   A
C558       H562 0.029       .   A
C559       C566 0.037       .   A
C559       C570 0.037       .   A
N560       H564 0.028       .   A
N560       H565 0.028       .   A
C566       C567 0.037       .   A
C566       C572 0.030       .   A
C567       C568 0.036       .   A
C567      Cl571 0.048       .   A
C568       C569 0.036       .   A
C569       C570 0.036       .   A
C569       H574 0.030       .   A
C570       H573 0.029       .   A
C572       N575 0.031       .   A
C530       C531 0.036       .   A
C530       C535 0.036       .   A
C531       C532 0.036       .   A
C531       H538 0.030       .   A
C532       C533 0.037       .   A
C532       N537 0.036       .   A
C533       C534 0.037       .   A
C533       C536 0.038       .   A
C534       C535 0.036       .   A
C534       H540 0.029       .   A
C535       H539 0.029       .   A
C536       C543 0.037       .   A
C536       C547 0.037       .   A
N537       H541 0.028       .   A
N537       H542 0.028       .   A
C543       C544 0.037       .   A
C543       C549 0.030       .   A
C544       C545 0.036       .   A
C544      Cl548 0.048       .   A
C545       C546 0.036       .   A
C546       C547 0.036       .   A
C546       H551 0.030       .   A
C547       H550 0.029       .   A
C549       N552 0.031       .   A
C507       C508 0.036       .   A
C507       C512 0.036       .   A
C508       C509 0.036       .   A
C508       H515 0.030       .   A
C509       C510 0.037       .   A
C509       N514 0.036       .   A
C510       C511 0.037       .   A
C510       C513 0.038       .   A
C511       C512 0.036       .   A
C511       H517 0.029       .   A
C512       H516 0.029       .   A
C513       C520 0.037       .   A
C513       C524 0.037       .   A
N514       H518 0.028       .   A
N514       H519 0.028       .   A
C520       C521 0.037       .   A
C520       C526 0.030       .   A
C521       C522 0.036       .   A
C521      Cl525 0.048       .   A
C522       C523 0.036       .   A
C523       C524 0.036       .   A
C523       H528 0.030       .   A
C524       H527 0.029       .   A
C526       N529 0.031       .   A
C484       C485 0.036       .   A
C484       C489 0.036       .   A
C485       C486 0.036       .   A
C485       H492 0.030       .   A
C486       C487 0.037       .   A
C486       N491 0.036       .   A
C487       C488 0.037       .   A
C487       C490 0.038       .   A
C488       C489 0.036       .   A
C488       H494 0.029       .   A
C489       H493 0.029       .   A
C490       C497 0.037       .   A
C490       C501 0.037       .   A
N491       H495 0.028       .   A
N491       H496 0.028       .   A
C497       C498 0.037       .   A
C497       C503 0.030       .   A
C498       C499 0.036       .   A
C498      Cl502 0.048       .   A
C499       C500 0.036       .   A
C500       C501 0.036       .   A
C500       H505 0.030       .   A
C501       H504 0.029       .   A
C503       N506 0.031       .   A
C461       C462 0.036       .   A
C461       C466 0.036       .   A
C462       C463 0.036       .   A
C462       H469 0.030       .   A
C463       C464 0.037       .   A
C463       N468 0.036       .   A
C464       C465 0.037       .   A
C464       C467 0.038       .   A
C465       C466 0.036       .   A
C465       H471 0.029       .   A
C466       H470 0.029       .   A
C467       C474 0.037       .   A
C467       C478 0.037       .   A
N468       H472 0.028       .   A
N468       H473 0.028       .   A
C474       C475 0.037       .   A
C474       C480 0.030       .   A
C475       C476 0.036       .   A
C475      Cl479 0.048       .   A
C476       C477 0.036       .   A
C477       C478 0.036       .   A
C477       H482 0.030       .   A
C478       H481 0.029       .   A
C480       N483 0.031       .   A
C438       C439 0.036       .   A
C438       C443 0.036       .   A
C439       C440 0.036       .   A
C439       H446 0.030       .   A
C440       C441 0.037       .   A
C440       N445 0.036       .   A
C441       C442 0.037       .   A
C441       C444 0.038       .   A
C442       C443 0.036       .   A
C442       H448 0.029       .   A
C443       H447 0.029       .   A
C444       C451 0.037       .   A
C444       C455 0.037       .   A
N445       H449 0.028       .   A
N445       H450 0.028       .   A
C451       C452 0.037       .   A
C451       C457 0.030       .   A
C452       C453 0.036       .   A
C452      Cl456 0.048       .   A
C453       C454 0.036       .   A
C454       C455 0.036       .   A
C454       H459 0.030       .   A
C455       H458 0.029       .   A
C457       N460 0.031       .   A
C415       C416 0.036       .   A
C415       C420 0.036       .   A
C416       C417 0.036       .   A
C416       H423 0.030       .   A
C417       C418 0.037       .   A
C417       N422 0.036       .   A
C418       C419 0.037       .   A
C418       C421 0.038       .   A
C419       C420 0.036       .   A
C419       H425 0.029       .   A
C420       H424 0.029       .   A
C421       C428 0.037       .   A
C421       C432 0.037       .   A
N422       H426 0.028       .   A
N422       H427 0.028       .   A
C428       C429 0.037       .   A
C428       C434 0.030       .   A
C429       C430 0.036       .   A
C429      Cl433 0.048       .   A
C430       C431 0.036       .   A
C431       C432 0.036       .   A
C431       H436 0.030       .   A
C432       H435 0.029       .   A
C434       N437 0.031       .   A
C392       C393 0.036       .   A
C392       C397 0.036       .   A
C393       C394 0.036       .   A
C393       H400 0.030       .   A
C394       C395 0.037       .   A
C394       N399 0.036       .   A
C395       C396 0.037       .   A
C395       C398 0.038       .   A
C396       C397 0.036       .   A
C396       H402 0.029       .   A
C397       H401 0.029       .   A
C398       C405 0.037       .   A
C398       C409 0.037       .   A
N399       H403 0.028       .   A
N399       H404 0.028       .   A
C405       C406 0.037       .   A
C405       C411 0.030       .   A
C406       C407 0.036       .   A
C406      Cl410 0.048       .   A
C407       C408 0.036       .   A
C408       C409 0.036       .   A
C408       H413 0.030       .   A
C409       H412 0.029       .   A
C411       N414 0.031       .   A
C369       C370 0.036       .   A
C369       C374 0.036       .   A
C370       C371 0.036       .   A
C370       H377 0.030       .   A
C371       C372 0.037       .   A
C371       N376 0.036       .   A
C372       C373 0.037       .   A
C372       C375 0.038       .   A
C373       C374 0.036       .   A
C373       H379 0.029       .   A
C374       H378 0.029       .   A
C375       C382 0.037       .   A
C375       C386 0.037       .   A
N376       H380 0.028       .   A
N376       H381 0.028       .   A
C382       C383 0.037       .   A
C382       C388 0.030       .   A
C383       C384 0.036       .   A
C383      Cl387 0.048       .   A
C384       C385 0.036       .   A
C385       C386 0.036       .   A
C385       H390 0.030       .   A
C386       H389 0.029       .   A
C388       N391 0.031       .   A
C346       C347 0.036       .   A
C346       C351 0.036       .   A
C347       C348 0.036       .   A
C347       H354 0.030       .   A
C348       C349 0.037       .   A
C348       N353 0.036       .   A
C349       C350 0.037       .   A
C349       C352 0.038       .   A
C350       C351 0.036       .   A
C350       H356 0.029       .   A
C351       H355 0.029       .   A
C352       C359 0.037       .   A
C352       C363 0.037       .   A
N353       H357 0.028       .   A
N353       H358 0.028       .   A
C359       C360 0.037       .   A
C359       C365 0.030       .   A
C360       C361 0.036       .   A
C360      Cl364 0.048       .   A
C361       C362 0.036       .   A
C362       C363 0.036       .   A
C362       H367 0.030       .   A
C363       H366 0.029       .   A
C365       N368 0.031       .   A
C323       C324 0.036       .   A
C323       C328 0.036       .   A
C324       C325 0.036       .   A
C324       H331 0.030       .   A
C325       C326 0.037       .   A
C325       N330 0.036       .   A
C326       C327 0.037       .   A
C326       C329 0.038       .   A
C327       C328 0.036       .   A
C327       H333 0.029       .   A
C328       H332 0.029       .   A
C329       C336 0.037       .   A
C329       C340 0.037       .   A
N330       H334 0.028       .   A
N330       H335 0.028       .   A
C336       C337 0.037       .   A
C336       C342 0.030       .   A
C337       C338 0.036       .   A
C337      Cl341 0.048       .   A
C338       C339 0.036       .   A
C339       C340 0.036       .   A
C339       H344 0.030       .   A
C340       H343 0.029       .   A
C342       N345 0.031       .   A
C300       C301 0.036       .   A
C300       C305 0.036       .   A
C301       C302 0.036       .   A
C301       H308 0.030       .   A
C302       C303 0.037       .   A
C302       N307 0.036       .   A
C303       C304 0.037       .   A
C303       C306 0.038       .   A
C304       C305 0.036       .   A
C304       H310 0.029       .   A
C305       H309 0.029       .   A
C306       C313 0.037       .   A
C306       C317 0.037       .   A
N307       H311 0.028       .   A
N307       H312 0.028       .   A
C313       C314 0.037       .   A
C313       C319 0.030       .   A
C314       C315 0.036       .   A
C314      Cl318 0.048       .   A
C315       C316 0.036       .   A
C316       C317 0.036       .   A
C316       H321 0.030       .   A
C317       H320 0.029       .   A
C319       N322 0.031       .   A
C277       C278 0.036       .   A
C277       C282 0.036       .   A
C278       C279 0.036       .   A
C278       H285 0.030       .   A
C279       C280 0.037       .   A
C279       N284 0.036       .   A
C280       C281 0.037       .   A
C280       C283 0.038       .   A
C281       C282 0.036       .   A
C281       H287 0.029       .   A
C282       H286 0.029       .   A
C283       C290 0.037       .   A
C283       C294 0.037       .   A
N284       H288 0.028       .   A
N284       H289 0.028       .   A
C290       C291 0.037       .   A
C290       C296 0.030       .   A
C291       C292 0.036       .   A
C291      Cl295 0.048       .   A
C292       C293 0.036       .   A
C293       C294 0.036       .   A
C293       H298 0.030       .   A
C294       H297 0.029       .   A
C296       N299 0.031       .   A
C254       C255 0.036       .   A
C254       C259 0.036       .   A
C255       C256 0.036       .   A
C255       H262 0.030       .   A
C256       C257 0.037       .   A
C256       N261 0.036       .   A
C257       C258 0.037       .   A
C257       C260 0.038       .   A
C258       C259 0.036       .   A
C258       H264 0.029       .   A
C259       H263 0.029       .   A
C260       C267 0.037       .   A
C260       C271 0.037       .   A
N261       H265 0.028       .   A
N261       H266 0.028       .   A
C267       C268 0.037       .   A
C267       C273 0.030       .   A
C268       C269 0.036       .   A
C268      Cl272 0.048       .   A
C269       C270 0.036       .   A
C270       C271 0.036       .   A
C270       H275 0.030       .   A
C271       H274 0.029       .   A
C273       N276 0.031       .   A
C231       C232 0.036       .   A
C231       C236 0.036       .   A
C232       C233 0.036       .   A
C232       H239 0.030       .   A
C233       C234 0.037       .   A
C233       N238 0.036       .   A
C234       C235 0.037       .   A
C234       C237 0.038       .   A
C235       C236 0.036       .   A
C235       H241 0.029       .   A
C236       H240 0.029       .   A
C237       C244 0.037       .   A
C237       C248 0.037       .   A
N238       H242 0.028       .   A
N238       H243 0.028       .   A
C244       C245 0.037       .   A
C244       C250 0.030       .   A
C245       C246 0.036       .   A
C245      Cl249 0.048       .   A
C246       C247 0.036       .   A
C247       C248 0.036       .   A
C247       H252 0.030       .   A
C248       H251 0.029       .   A
C250       N253 0.031       .   A
C208       C209 0.036       .   A
C208       C213 0.036       .   A
C209       C210 0.036       .   A
C209       H216 0.030       .   A
C210       C211 0.037       .   A
C210       N215 0.036       .   A
C211       C212 0.037       .   A
C211       C214 0.038       .   A
C212       C213 0.036       .   A
C212       H218 0.029       .   A
C213       H217 0.029       .   A
C214       C221 0.037       .   A
C214       C225 0.037       .   A
N215       H219 0.028       .   A
N215       H220 0.028       .   A
C221       C222 0.037       .   A
C221       C227 0.030       .   A
C222       C223 0.036       .   A
C222      Cl226 0.048       .   A
C223       C224 0.036       .   A
C224       C225 0.036       .   A
C224       H229 0.030       .   A
C225       H228 0.029       .   A
C227       N230 0.031       .   A
C185       C186 0.036       .   A
C185       C190 0.036       .   A
C186       C187 0.036       .   A
C186       H193 0.030       .   A
C187       C188 0.037       .   A
C187       N192 0.036       .   A
C188       C189 0.037       .   A
C188       C191 0.038       .   A
C189       C190 0.036       .   A
C189       H195 0.029       .   A
C190       H194 0.029       .   A
C191       C198 0.037       .   A
C191       C202 0.037       .   A
N192       H196 0.028       .   A
N192       H197 0.028       .   A
C198       C199 0.037       .   A
C198       C204 0.030       .   A
C199       C200 0.036       .   A
C199      Cl203 0.048       .   A
C200       C201 0.036       .   A
C201       C202 0.036       .   A
C201       H206 0.030       .   A
C202       H205 0.029       .   A
C204       N207 0.031       .   A
