data_pcu_v1-6c_Zn_1_Ch_1-10_fer_tobacco
_audit_creation_date              2021-04-07
_audit_creation_method            'tobacco_3.0'
_symmetry_space_group_name_H-M    'P1'
_symmetry_Int_Tables_number       1
_symmetry_cell_setting            triclinic
loop_
_symmetry_equiv_pos_as_xyz
  x,y,z
_cell_length_a                    36.78429311517425
_cell_length_b                    36.78429311517425
_cell_length_c                    36.78429311517425
_cell_angle_alpha                 90.0
_cell_angle_beta                  90.0
_cell_angle_gamma                 90.0
loop_
_atom_site_label
_atom_site_type_symbol
_atom_site_fract_x
_atom_site_fract_y
_atom_site_fract_z
_atom_site_charge
Zn1       Zn   -0.0304804009   -0.0304804009   -0.0304804009          1.4972
Zn2       Zn    0.0304804009   -0.0304804009    0.0304804009          1.4936
Zn3       Zn    0.0304804009    0.0304804009   -0.0304804009          1.4911
Zn4       Zn   -0.0304804009    0.0304804009    0.0304804009          1.4948
O5         O    0.0000000000    0.0000000000    0.0000000000         -2.1949
O6         O   -0.0224008654   -0.0814641181   -0.0224008654         -1.1012
O7         O    0.0814641181   -0.0224008654    0.0224008654         -1.0994
O8         O    0.0224008654    0.0224008654   -0.0814641181         -1.0946
O9         O    0.0224008654   -0.0814641181    0.0224008654         -1.1013
O10        O   -0.0224008654   -0.0224008654   -0.0814641181         -1.0973
O11        O    0.0814641181    0.0224008654   -0.0224008654         -1.1032
O12        O   -0.0224008654    0.0814641181    0.0224008654         -1.0971
O13        O    0.0224008654   -0.0224008654    0.0814641181         -1.1046
O14        O    0.0224008654    0.0814641181   -0.0224008654         -1.0985
O15        O   -0.0224008654    0.0224008654    0.0814641181         -1.1032
O16        O   -0.0814641181    0.0224008654    0.0224008654         -1.1023
O17        O   -0.0814641181   -0.0224008654   -0.0224008654         -1.1002
C18        C   -0.0000000000   -0.0974002678   -0.0000000000          0.4177
C19        C    0.0974002678   -0.0000000000   -0.0000000000          0.4226
C20        C   -0.0000000000   -0.0000000000   -0.0974002678          0.4122
C21        C    0.0000000000    0.0974002678    0.0000000000           0.416
C22        C    0.0000000000    0.0000000000    0.0974002678          0.4273
C23        C   -0.0974002678    0.0000000000    0.0000000000          0.4178
Zn24      Zn    0.9695195991    0.0304804009    0.4695195991          1.4972
Zn25      Zn    1.0304804009   -0.0304804009    0.4695195991          1.4936
Zn26      Zn    1.0304804009    0.0304804009    0.5304804009          1.4911
Zn27      Zn    0.9695195991   -0.0304804009    0.5304804009          1.4948
O28        O    1.0000000000    0.0000000000    0.5000000000         -2.1949
O29        O    0.9775991346    0.0224008654    0.4185358819         -1.1012
O30        O    1.0814641181   -0.0224008654    0.4775991346         -1.0994
O31        O    1.0224008654    0.0814641181    0.5224008654         -1.0946
O32        O    1.0224008654   -0.0224008654    0.4185358819         -1.1013
O33        O    0.9775991346    0.0814641181    0.4775991346         -1.0973
O34        O    1.0814641181    0.0224008654    0.5224008654         -1.1032
O35        O    0.9775991346   -0.0224008654    0.5814641181         -1.0971
O36        O    1.0224008654   -0.0814641181    0.4775991346         -1.1046
O37        O    1.0224008654    0.0224008654    0.5814641181         -1.0985
O38        O    0.9775991346   -0.0814641181    0.5224008654         -1.1032
O39        O    0.9185358819   -0.0224008654    0.5224008654         -1.1023
O40        O    0.9185358819    0.0224008654    0.4775991346         -1.1002
C41        C    1.0000000000    0.0000000000    0.4025997322          0.4177
C42        C    1.0974002678    0.0000000000    0.5000000000          0.4226
C43        C    1.0000000000    0.0974002678    0.5000000000          0.4122
C44        C    1.0000000000    0.0000000000    0.5974002678           0.416
C45        C    1.0000000000   -0.0974002678    0.5000000000          0.4273
C46        C    0.9025997322    0.0000000000    0.5000000000          0.4178
Zn47      Zn    1.0304804009    0.4695195991   -0.0304804009          1.4972
Zn48      Zn    0.9695195991    0.4695195991    0.0304804009          1.4936
Zn49      Zn    1.0304804009    0.5304804009    0.0304804009          1.4911
Zn50      Zn    0.9695195991    0.5304804009   -0.0304804009          1.4948
O51        O    1.0000000000    0.5000000000    0.0000000000         -2.1949
O52        O    1.0224008654    0.4185358819   -0.0224008654         -1.1012
O53        O    0.9775991346    0.4775991346    0.0814641181         -1.0994
O54        O    1.0814641181    0.5224008654    0.0224008654         -1.0946
O55        O    0.9775991346    0.4185358819    0.0224008654         -1.1013
O56        O    1.0814641181    0.4775991346   -0.0224008654         -1.0973
O57        O    1.0224008654    0.5224008654    0.0814641181         -1.1032
O58        O    0.9775991346    0.5814641181   -0.0224008654         -1.0971
O59        O    0.9185358819    0.4775991346    0.0224008654         -1.1046
O60        O    1.0224008654    0.5814641181    0.0224008654         -1.0985
O61        O    0.9185358819    0.5224008654   -0.0224008654         -1.1032
O62        O    0.9775991346    0.5224008654   -0.0814641181         -1.1023
O63        O    1.0224008654    0.4775991346   -0.0814641181         -1.1002
C64        C    1.0000000000    0.4025997322    0.0000000000          0.4177
C65        C    1.0000000000    0.5000000000    0.0974002678          0.4226
C66        C    1.0974002678    0.5000000000    0.0000000000          0.4122
C67        C    1.0000000000    0.5974002678    0.0000000000           0.416
C68        C    0.9025997322    0.5000000000    0.0000000000          0.4273
C69        C    1.0000000000    0.5000000000   -0.0974002678          0.4178
Zn70      Zn    0.9695195991    0.4695195991    0.5304804009          1.4972
Zn71      Zn    1.0304804009    0.4695195991    0.4695195991          1.4936
Zn72      Zn    0.9695195991    0.5304804009    0.4695195991          1.4911
Zn73      Zn    1.0304804009    0.5304804009    0.5304804009          1.4948
O74        O    1.0000000000    0.5000000000    0.5000000000         -2.1949
O75        O    0.9775991346    0.4185358819    0.5224008654         -1.1012
O76        O    1.0224008654    0.4775991346    0.4185358819         -1.0994
O77        O    0.9185358819    0.5224008654    0.4775991346         -1.0946
O78        O    1.0224008654    0.4185358819    0.4775991346         -1.1013
O79        O    0.9185358819    0.4775991346    0.5224008654         -1.0973
O80        O    0.9775991346    0.5224008654    0.4185358819         -1.1032
O81        O    1.0224008654    0.5814641181    0.5224008654         -1.0971
O82        O    1.0814641181    0.4775991346    0.4775991346         -1.1046
O83        O    0.9775991346    0.5814641181    0.4775991346         -1.0985
O84        O    1.0814641181    0.5224008654    0.5224008654         -1.1032
O85        O    1.0224008654    0.5224008654    0.5814641181         -1.1023
O86        O    0.9775991346    0.4775991346    0.5814641181         -1.1002
C87        C    1.0000000000    0.4025997322    0.5000000000          0.4177
C88        C    1.0000000000    0.5000000000    0.4025997322          0.4226
C89        C    0.9025997322    0.5000000000    0.5000000000          0.4122
C90        C    1.0000000000    0.5974002678    0.5000000000           0.416
C91        C    1.0974002678    0.5000000000    0.5000000000          0.4273
C92        C    1.0000000000    0.5000000000    0.5974002678          0.4178
Zn93      Zn    0.4695195991    0.9695195991   -0.0304804009          1.4972
Zn94      Zn    0.4695195991    1.0304804009    0.0304804009          1.4936
Zn95      Zn    0.5304804009    0.9695195991    0.0304804009          1.4911
Zn96      Zn    0.5304804009    1.0304804009   -0.0304804009          1.4948
O97        O    0.5000000000    1.0000000000    0.0000000000         -2.1949
O98        O    0.4185358819    0.9775991346   -0.0224008654         -1.1012
O99        O    0.4775991346    1.0224008654    0.0814641181         -1.0994
O100       O    0.5224008654    0.9185358819    0.0224008654         -1.0946
O101       O    0.4185358819    1.0224008654    0.0224008654         -1.1013
O102       O    0.4775991346    0.9185358819   -0.0224008654         -1.0973
O103       O    0.5224008654    0.9775991346    0.0814641181         -1.1032
O104       O    0.5814641181    1.0224008654   -0.0224008654         -1.0971
O105       O    0.4775991346    1.0814641181    0.0224008654         -1.1046
O106       O    0.5814641181    0.9775991346    0.0224008654         -1.0985
O107       O    0.5224008654    1.0814641181   -0.0224008654         -1.1032
O108       O    0.5224008654    1.0224008654   -0.0814641181         -1.1023
O109       O    0.4775991346    0.9775991346   -0.0814641181         -1.1002
C110       C    0.4025997322    1.0000000000    0.0000000000          0.4177
C111       C    0.5000000000    1.0000000000    0.0974002678          0.4226
C112       C    0.5000000000    0.9025997322    0.0000000000          0.4122
C113       C    0.5974002678    1.0000000000    0.0000000000           0.416
C114       C    0.5000000000    1.0974002678    0.0000000000          0.4273
C115       C    0.5000000000    1.0000000000   -0.0974002678          0.4178
Zn116     Zn    0.4695195991    1.0304804009    0.5304804009          1.4972
Zn117     Zn    0.4695195991    0.9695195991    0.4695195991          1.4936
Zn118     Zn    0.5304804009    1.0304804009    0.4695195991          1.4911
Zn119     Zn    0.5304804009    0.9695195991    0.5304804009          1.4948
O120       O    0.5000000000    1.0000000000    0.5000000000         -2.1949
O121       O    0.4185358819    1.0224008654    0.5224008654         -1.1012
O122       O    0.4775991346    0.9775991346    0.4185358819         -1.0994
O123       O    0.5224008654    1.0814641181    0.4775991346         -1.0946
O124       O    0.4185358819    0.9775991346    0.4775991346         -1.1013
O125       O    0.4775991346    1.0814641181    0.5224008654         -1.0973
O126       O    0.5224008654    1.0224008654    0.4185358819         -1.1032
O127       O    0.5814641181    0.9775991346    0.5224008654         -1.0971
O128       O    0.4775991346    0.9185358819    0.4775991346         -1.1046
O129       O    0.5814641181    1.0224008654    0.4775991346         -1.0985
O130       O    0.5224008654    0.9185358819    0.5224008654         -1.1032
O131       O    0.5224008654    0.9775991346    0.5814641181         -1.1023
O132       O    0.4775991346    1.0224008654    0.5814641181         -1.1002
C133       C    0.4025997322    1.0000000000    0.5000000000          0.4177
C134       C    0.5000000000    1.0000000000    0.4025997322          0.4226
C135       C    0.5000000000    1.0974002678    0.5000000000          0.4122
C136       C    0.5974002678    1.0000000000    0.5000000000           0.416
C137       C    0.5000000000    0.9025997322    0.5000000000          0.4273
C138       C    0.5000000000    1.0000000000    0.5974002678          0.4178
Zn139     Zn    0.4695195991    0.5304804009   -0.0304804009          1.4972
Zn140     Zn    0.4695195991    0.4695195991    0.0304804009          1.4936
Zn141     Zn    0.5304804009    0.4695195991   -0.0304804009          1.4911
Zn142     Zn    0.5304804009    0.5304804009    0.0304804009          1.4948
O143       O    0.5000000000    0.5000000000    0.0000000000         -2.1949
O144       O    0.4185358819    0.5224008654   -0.0224008654         -1.1012
O145       O    0.4775991346    0.4185358819    0.0224008654         -1.0994
O146       O    0.5224008654    0.4775991346   -0.0814641181         -1.0946
O147       O    0.4185358819    0.4775991346    0.0224008654         -1.1013
O148       O    0.4775991346    0.5224008654   -0.0814641181         -1.0973
O149       O    0.5224008654    0.4185358819   -0.0224008654         -1.1032
O150       O    0.5814641181    0.5224008654    0.0224008654         -1.0971
O151       O    0.4775991346    0.4775991346    0.0814641181         -1.1046
O152       O    0.5814641181    0.4775991346   -0.0224008654         -1.0985
O153       O    0.5224008654    0.5224008654    0.0814641181         -1.1032
O154       O    0.5224008654    0.5814641181    0.0224008654         -1.1023
O155       O    0.4775991346    0.5814641181   -0.0224008654         -1.1002
C156       C    0.4025997322    0.5000000000    0.0000000000          0.4177
C157       C    0.5000000000    0.4025997322    0.0000000000          0.4226
C158       C    0.5000000000    0.5000000000   -0.0974002678          0.4122
C159       C    0.5974002678    0.5000000000    0.0000000000           0.416
C160       C    0.5000000000    0.5000000000    0.0974002678          0.4273
C161       C    0.5000000000    0.5974002678    0.0000000000          0.4178
Zn162     Zn    0.5304804009    0.4695195991    0.4695195991          1.4972
Zn163     Zn    0.4695195991    0.5304804009    0.4695195991          1.4936
Zn164     Zn    0.4695195991    0.4695195991    0.5304804009          1.4911
Zn165     Zn    0.5304804009    0.5304804009    0.5304804009          1.4948
O166       O    0.5000000000    0.5000000000    0.5000000000         -2.1949
O167       O    0.5224008654    0.4775991346    0.4185358819         -1.1012
O168       O    0.4185358819    0.5224008654    0.4775991346         -1.0994
O169       O    0.4775991346    0.4185358819    0.5224008654         -1.0946
O170       O    0.4775991346    0.5224008654    0.4185358819         -1.1013
O171       O    0.5224008654    0.4185358819    0.4775991346         -1.0973
O172       O    0.4185358819    0.4775991346    0.5224008654         -1.1032
O173       O    0.5224008654    0.5224008654    0.5814641181         -1.0971
O174       O    0.4775991346    0.5814641181    0.4775991346         -1.1046
O175       O    0.4775991346    0.4775991346    0.5814641181         -1.0985
O176       O    0.5224008654    0.5814641181    0.5224008654         -1.1032
O177       O    0.5814641181    0.5224008654    0.5224008654         -1.1023
O178       O    0.5814641181    0.4775991346    0.4775991346         -1.1002
C179       C    0.5000000000    0.5000000000    0.4025997322          0.4177
C180       C    0.4025997322    0.5000000000    0.5000000000          0.4226
C181       C    0.5000000000    0.4025997322    0.5000000000          0.4122
C182       C    0.5000000000    0.5000000000    0.5974002678           0.416
C183       C    0.5000000000    0.5974002678    0.5000000000          0.4273
C184       C    0.5974002678    0.5000000000    0.5000000000          0.4178
C875       C    0.5000000000    0.5000000000   -0.3607340371         -0.3436
C876       C    0.5071158425    0.5322282450   -0.3438178459         -0.3532
C877       C    0.5074144445    0.5329109749   -0.3068192507         -0.3556
C878       C    0.4991468201    0.5034173816   -0.2865065261         -0.3471
C879       C    0.4922759660    0.4721451139   -0.3041600412         -0.3377
C880       C    0.4934528971    0.4696180985   -0.3406808695         -0.3366
C881       C    0.4971717754    0.5044636598   -0.2452951522         -0.3476
H882       H    0.5135371875    0.5581567159   -0.2928639721          0.6363
C883       C    0.5161932394    0.5665394336   -0.3658827726          0.6373
C884       C    0.5145611835    0.4096240842   -0.3459218036         -0.3515
H885       H    0.4848237146    0.4480841625   -0.2887423664         -0.3301
C886       C    0.5103624596    0.4710938341   -0.2250422874          0.6415
N887       N    0.5218251798    0.4880531649   -0.1918713566           0.628
N888       N    0.5286897098    0.5243834839   -0.1968361795          0.6195
N889       N    0.5198986312    0.5333891538   -0.2286446825          0.6287
N890       N    0.5102798266    0.4747062634   -0.1593528233          0.6377
H891       H    0.4890486988    0.4508424494   -0.2205132697         -0.3379
H892       H    0.5342593327    0.4583958722   -0.2374361684          0.6212
H893       H    0.4688686245    0.5101863559   -0.2377046366         -0.3226
C894       C    0.5248865142    0.6017903026   -0.3457914424          0.6259
H895       H    0.5310757022    0.6232092173   -0.3655424051          0.6198
H896       H    0.5484761972    0.5988787177   -0.3279229888          0.6035
H897       H    0.5015537309    0.6109576303   -0.3297315655         -0.3543
H898       H    0.5394427581    0.5605735781   -0.3836389971          0.6175
H899       H    0.4927675117    0.5729681706   -0.3831229460         -0.3407
N900       N    0.5000000000    0.5000000000   -0.1392659629         -0.3557
H901       H    0.5420157939    0.4202081802   -0.3506118475          0.6229
H902       H    0.5108504263    0.3854734413   -0.3627446697         -0.3456
H903       H    0.5111096289    0.4019073465   -0.3174206274         -0.3494
O904       O    0.4880320927    0.4359689012   -0.3572224743         -0.3284
C845       C    0.5000000000    0.5000000000    0.1392659629         -0.3436
C846       C    0.4683801647    0.5094594400    0.1561821541         -0.3532
C847       C    0.4677211634    0.5098072914    0.1931807493         -0.3556
C848       C    0.4965292655    0.4993996542    0.2134934739         -0.3471
C849       C    0.5272136568    0.4902546288    0.1958399588         -0.3377
C850       C    0.5298201563    0.4912431299    0.1593191305         -0.3366
C851       C    0.4953410066    0.4975066300    0.2547048478         -0.3476
H852       H    0.4429922350    0.5177643966    0.2071360279          0.6363
C853       C    0.4348267982    0.5210278625    0.1341172274          0.6373
C854       C    0.5912002358    0.5078962780    0.1540781964         -0.3515
H855       H    0.5506635138    0.4810584532    0.2112576336         -0.3301
C856       C    0.5295880811    0.5082153791    0.2749577126          0.6415
N857       N    0.5135147534    0.5208905908    0.3081286434           0.628
N858       N    0.4777854584    0.5304001295    0.3031638205          0.6195
N859       N    0.4681595233    0.5222929397    0.2713553175          0.6287
N860       N    0.5259793149    0.5083978061    0.3406471767          0.6377
H861       H    0.5482223954    0.4854742859    0.2794867303         -0.3379
H862       H    0.5440038219    0.5311170209    0.2625638316          0.6212
H863       H    0.4875587240    0.4696991908    0.2622953634         -0.3226
C864       C    0.4003081190    0.5322820873    0.1542085576          0.6259
H865       H    0.3794005902    0.5400249030    0.1344575949          0.6198
H866       H    0.4049412971    0.5555948334    0.1720770112          0.6035
H867       H    0.3894548665    0.5096841763    0.1702684345         -0.3543
H868       H    0.4424810894    0.5437774423    0.1163610029          0.6175
H869       H    0.4266979529    0.4981364832    0.1168770540         -0.3407
N870       N    0.5000000000    0.5000000000    0.3607340371         -0.3557
H871       H    0.5826573991    0.5360529586    0.1493881525          0.6229
H872       H    0.6150138427    0.5024249527    0.1372553303         -0.3456
H873       H    0.5986431642    0.5038882751    0.1825793726         -0.3494
O874       O    0.5629813883    0.4833699924    0.1427775257         -0.3284
C815       C    0.5000000000    0.6392659629    0.5000000000         -0.3436
C816       C    0.4836463808    0.6561821541    0.5286679984         -0.3532
C817       C    0.4831587358    0.6931807493    0.5292314570         -0.3556
C818       C    0.4998013059    0.7134934739    0.5035166651         -0.3471
C819       C    0.5156374448    0.6958399588    0.4756889799         -0.3377
C820       C    0.5152628976    0.6593191305    0.4729266099         -0.3366
C821       C    0.5013772020    0.7547048478    0.5051016104         -0.3476
H822       H    0.4698243344    0.7071360279    0.5515256078          0.6363
C823       C    0.4648017178    0.6341172274    0.5587434946          0.6373
C824       C    0.5128966295    0.6540781964    0.4093715764         -0.3515
H825       H    0.5298901696    0.7112576336    0.4549206079         -0.3301
C826       C    0.4986764159    0.7749577126    0.4693210965          0.6415
N827       N    0.4826997709    0.8081286434    0.4821179583           0.628
N828       N    0.4653696088    0.8031638205    0.5147780153          0.6195
N829       N    0.4710943829    0.7713553175    0.5259856964          0.6287
N830       N    0.4976839957    0.8406471767    0.4727955138          0.6377
H831       H    0.5250372385    0.7794867303    0.4563018024         -0.3379
H832       H    0.4796204575    0.7625638316    0.4501073194          0.6212
H833       H    0.5267098554    0.7622953634    0.5189606964         -0.3226
C834       C    0.4460452154    0.6542085576    0.5898303151          0.6259
H835       H    0.4337822776    0.6344575949    0.6084500979          0.6198
H836       H    0.4243802877    0.6720770112    0.5800537421          0.6035
H837       H    0.4656095394    0.6702684345    0.6055050048         -0.3543
H838       H    0.4443674539    0.6163610029    0.5461509409          0.6175
H839       H    0.4852669869    0.6168770540    0.5718303635         -0.3407
N840       N    0.5000000000    0.8607340371    0.5000000000         -0.3557
H841       H    0.4835382474    0.6493881525    0.4113373125          0.6229
H842       H    0.5236027846    0.6372553303    0.3874079356         -0.3456
H843       H    0.5184814510    0.6825793726    0.4030256297         -0.3494
O844       O    0.5304191470    0.6427775257    0.4423988896         -0.3284
C785       C    0.5000000000    1.1392659629    0.5000000000         -0.3436
C786       C    0.4683801647    1.1561821541    0.4905405600         -0.3532
C787       C    0.4677211634    1.1931807493    0.4901927086         -0.3556
C788       C    0.4965292655    1.2134934739    0.5006003458         -0.3471
C789       C    0.5272136568    1.1958399588    0.5097453712         -0.3377
C790       C    0.5298201563    1.1593191305    0.5087568701         -0.3366
C791       C    0.4953410066    1.2547048478    0.5024933700         -0.3476
H792       H    0.4429922350    1.2071360279    0.4822356034          0.6363
C793       C    0.4348267982    1.1341172274    0.4789721375          0.6373
C794       C    0.5912002358    1.1540781964    0.4921037220         -0.3515
H795       H    0.5506635138    1.2112576336    0.5189415468         -0.3301
C796       C    0.5295880811    1.2749577126    0.4917846209          0.6415
N797       N    0.5135147534    1.3081286434    0.4791094092           0.628
N798       N    0.4777854584    1.3031638205    0.4695998705          0.6195
N799       N    0.4681595233    1.2713553175    0.4777070603          0.6287
N800       N    0.5259793149    1.3406471767    0.4916021939          0.6377
H801       H    0.5482223954    1.2794867303    0.5145257141         -0.3379
H802       H    0.5440038219    1.2625638316    0.4688829791          0.6212
H803       H    0.4875587240    1.2622953634    0.5303008092         -0.3226
C804       C    0.4003081190    1.1542085576    0.4677179127          0.6259
H805       H    0.3794005902    1.1344575949    0.4599750970          0.6198
H806       H    0.4049412971    1.1720770112    0.4444051666          0.6035
H807       H    0.3894548665    1.1702684345    0.4903158237         -0.3543
H808       H    0.4424810894    1.1163610029    0.4562225577          0.6175
H809       H    0.4266979529    1.1168770540    0.5018635168         -0.3407
N810       N    0.5000000000    1.3607340371    0.5000000000         -0.3557
H811       H    0.5826573991    1.1493881525    0.4639470414          0.6229
H812       H    0.6150138427    1.1372553303    0.4975750473         -0.3456
H813       H    0.5986431642    1.1825793726    0.4961117249         -0.3494
O814       O    0.5629813883    1.1427775257    0.5166300076         -0.3284
C755       C    0.5000000000    0.8607340371    0.0000000000         -0.3436
C756       C    0.4752653257    0.8438178459   -0.0218515647         -0.3532
C757       C    0.4746218586    0.8068192507   -0.0222273749         -0.3556
C758       C    0.4986763925    0.7865065261   -0.0032641195         -0.3471
C759       C    0.5226499644    0.8041600412    0.0179592453         -0.3377
C760       C    0.5231874712    0.8406808695    0.0206945808         -0.3366
C761       C    0.4996560782    0.7452951522   -0.0052730287         -0.3476
H762       H    0.4548028270    0.7928639721   -0.0390214634          0.6363
C763       C    0.4477185599    0.8658827726   -0.0442308518          0.6373
C764       C    0.5414703547    0.8459218036    0.0816090920         -0.3515
H765       H    0.5428454400    0.7887423664    0.0330127566         -0.3301
C766       C    0.5086537651    0.7250422874    0.0294628469          0.6415
N767       N    0.4894007785    0.6918713566    0.0225104830           0.628
N768       N    0.4624528087    0.6968361795   -0.0028039550          0.6195
N769       N    0.4642518665    0.7286446825   -0.0152598188          0.6287
N770       N    0.5065925932    0.6593528233    0.0264950120          0.6377
H771       H    0.5378064798    0.7205132697    0.0332725994         -0.3379
H772       H    0.4968228950    0.7374361684    0.0538006629          0.6212
H773       H    0.5191564738    0.7377046366   -0.0265697930         -0.3226
C774       C    0.4199286678    0.8457914424   -0.0675957548          0.6259
H775       H    0.4023101828    0.8655424051   -0.0812582926          0.6198
H776       H    0.4025812463    0.8279229888   -0.0513471414          0.6035
H777       H    0.4333834684    0.8297315655   -0.0887482255         -0.3543
H778       H    0.4324451771    0.8836389971   -0.0257144987          0.6175
H779       H    0.4628616688    0.8831229460   -0.0632250516         -0.3407
N780       N    0.5000000000    0.6392659629    0.0000000000         -0.3557
H781       H    0.5130499340    0.8506118475    0.0892286987          0.6229
H782       H    0.5586952096    0.8627446697    0.0989390558         -0.3456
H783       H    0.5488051537    0.8174206274    0.0858117096         -0.3494
O784       O    0.5473894362    0.8572224743    0.0446928826         -0.3284
C725       C    0.5000000000    1.1392659629    0.0000000000         -0.3436
C726       C    0.5322717903    1.1561821541   -0.0069156739         -0.3532
C727       C    0.5330168668    1.1931807493   -0.0069276809         -0.3556
C728       C    0.5027541104    1.2134934739   -0.0021957433         -0.3471
C729       C    0.4714536776    1.1958399588    0.0045456412         -0.3377
C730       C    0.4696439630    1.1593191305    0.0066659966         -0.3366
C731       C    0.5028853494    1.2547048478   -0.0044269485         -0.3476
H732       H    0.5585246228    1.2071360279   -0.0118459944          0.6363
C733       C    0.5672531625    1.1341172274   -0.0129123728          0.6373
C734       C    0.4238407000    1.1540781964    0.0507897159         -0.3515
H735       H    0.4464713265    1.2112576336    0.0077624058         -0.3301
C736       C    0.4780109971    1.2749577126    0.0214343357          0.6415
N737       N    0.4981995724    1.3081286434    0.0248157974           0.628
N738       N    0.5340983189    1.3031638205    0.0159674163          0.6195
N739       N    0.5386380820    1.2713553175    0.0042296267          0.6287
N740       N    0.4812626330    1.3406471767    0.0198584749          0.6377
H741       H    0.4507355058    1.2794867303    0.0104597032         -0.3379
H742       H    0.4763879585    1.2625638316    0.0484466390          0.6212
H743       H    0.4963330162    1.2622953634   -0.0325496178         -0.3226
C744       C    0.6029297193    1.1542085576   -0.0196488468          0.6259
H745       H    0.6249840931    1.1344575949   -0.0229169585          0.6198
H746       H    0.6100810205    1.1720770112    0.0030185166          0.6035
H747       H    0.6015755344    1.1702684345   -0.0446813228         -0.3543
H748       H    0.5714849032    1.1163610029    0.0107143901          0.6175
H749       H    0.5633692695    1.1168770540   -0.0368917129         -0.3407
N750       N    0.5000000000    1.3607340371    0.0000000000         -0.3557
H751       H    0.4448736289    1.1493881525    0.0713662711          0.6229
H752       H    0.4003310757    1.1372553303    0.0574471054         -0.3456
H753       H    0.4153874817    1.1825793726    0.0508558184         -0.3494
O754       O    0.4367837981    1.1427775257    0.0157138232         -0.3284
C695       C    0.5000000000    1.0000000000   -0.3607340371         -0.3436
C696       C    0.4905405600    0.9683801647   -0.3438178459         -0.3532
C697       C    0.4901927086    0.9677211634   -0.3068192507         -0.3556
C698       C    0.5006003458    0.9965292655   -0.2865065261         -0.3471
C699       C    0.5097453712    1.0272136568   -0.3041600412         -0.3377
C700       C    0.5087568701    1.0298201563   -0.3406808695         -0.3366
C701       C    0.5024933700    0.9953410066   -0.2452951522         -0.3476
H702       H    0.4822356034    0.9429922350   -0.2928639721          0.6363
C703       C    0.4789721375    0.9348267982   -0.3658827726          0.6373
C704       C    0.4921037220    1.0912002358   -0.3459218036         -0.3515
H705       H    0.5189415468    1.0506635138   -0.2887423664         -0.3301
C706       C    0.4917846209    1.0295880811   -0.2250422874          0.6415
N707       N    0.4791094092    1.0135147534   -0.1918713566           0.628
N708       N    0.4695998705    0.9777854584   -0.1968361795          0.6195
N709       N    0.4777070603    0.9681595233   -0.2286446825          0.6287
N710       N    0.4916021939    1.0259793149   -0.1593528233          0.6377
H711       H    0.5145257141    1.0482223954   -0.2205132697         -0.3379
H712       H    0.4688829791    1.0440038219   -0.2374361684          0.6212
H713       H    0.5303008092    0.9875587240   -0.2377046366         -0.3226
C714       C    0.4677179127    0.9003081190   -0.3457914424          0.6259
H715       H    0.4599750970    0.8794005902   -0.3655424051          0.6198
H716       H    0.4444051666    0.9049412971   -0.3279229888          0.6035
H717       H    0.4903158237    0.8894548665   -0.3297315655         -0.3543
H718       H    0.4562225577    0.9424810894   -0.3836389971          0.6175
H719       H    0.5018635168    0.9266979529   -0.3831229460         -0.3407
N720       N    0.5000000000    1.0000000000   -0.1392659629         -0.3557
H721       H    0.4639470414    1.0826573991   -0.3506118475          0.6229
H722       H    0.4975750473    1.1150138427   -0.3627446697         -0.3456
H723       H    0.4961117249    1.0986431642   -0.3174206274         -0.3494
O724       O    0.5166300076    1.0629813883   -0.3572224743         -0.3284
C665       C    0.5000000000    1.0000000000    0.3607340371         -0.3436
C666       C    0.5071158425    0.9677717550    0.3438178459         -0.3532
C667       C    0.5074144445    0.9670890251    0.3068192507         -0.3556
C668       C    0.4991468201    0.9965826184    0.2865065261         -0.3471
C669       C    0.4922759660    1.0278548861    0.3041600412         -0.3377
C670       C    0.4934528971    1.0303819015    0.3406808695         -0.3366
C671       C    0.4971717754    0.9955363402    0.2452951522         -0.3476
H672       H    0.5135371875    0.9418432841    0.2928639721          0.6363
C673       C    0.5161932394    0.9334605664    0.3658827726          0.6373
C674       C    0.5145611835    1.0903759158    0.3459218036         -0.3515
H675       H    0.4848237146    1.0519158375    0.2887423664         -0.3301
C676       C    0.5103624596    1.0289061659    0.2250422874          0.6415
N677       N    0.5218251798    1.0119468351    0.1918713566           0.628
N678       N    0.5286897098    0.9756165161    0.1968361795          0.6195
N679       N    0.5198986312    0.9666108462    0.2286446825          0.6287
N680       N    0.5102798266    1.0252937366    0.1593528233          0.6377
H681       H    0.4890486988    1.0491575506    0.2205132697         -0.3379
H682       H    0.5342593327    1.0416041278    0.2374361684          0.6212
H683       H    0.4688686245    0.9898136441    0.2377046366         -0.3226
C684       C    0.5248865142    0.8982096974    0.3457914424          0.6259
H685       H    0.5310757022    0.8767907827    0.3655424051          0.6198
H686       H    0.5484761972    0.9011212823    0.3279229888          0.6035
H687       H    0.5015537309    0.8890423697    0.3297315655         -0.3543
H688       H    0.5394427581    0.9394264219    0.3836389971          0.6175
H689       H    0.4927675117    0.9270318294    0.3831229460         -0.3407
N690       N    0.5000000000    1.0000000000    0.1392659629         -0.3557
H691       H    0.5420157939    1.0797918198    0.3506118475          0.6229
H692       H    0.5108504263    1.1145265587    0.3627446697         -0.3456
H693       H    0.5111096289    1.0980926535    0.3174206274         -0.3494
O694       O    0.4880320927    1.0640310988    0.3572224743         -0.3284
C635       C    0.8607340371    0.5000000000    0.5000000000         -0.3436
C636       C    0.8438178459    0.4672069615    0.5037298283         -0.3532
C637       C    0.8068192507    0.4664642760    0.5036689883         -0.3556
C638       C    0.7865065261    0.4970445527    0.5019161796         -0.3471
C639       C    0.8041600412    0.5288538532    0.4982649110         -0.3377
C640       C    0.8406808695    0.5308620573    0.4963314968         -0.3366
C641       C    0.7452951522    0.4966959659    0.5041238904         -0.3476
H642       H    0.7928639721    0.4405980464    0.5060718170          0.6363
C643       C    0.8658827726    0.4318070809    0.5062803673          0.6373
C644       C    0.8459218036    0.5807568480    0.4568935537         -0.3515
H645       H    0.7887423664    0.5540309599    0.4975041628         -0.3301
C646       C    0.7250422874    0.5239778270    0.4808163921          0.6415
N647       N    0.6918713566    0.5042161729    0.4754788004           0.628
N648       N    0.6968361795    0.4676247137    0.4807777585          0.6195
N649       N    0.7286446825    0.4619599535    0.4920158921          0.6287
N650       N    0.6593528233    0.5205877929    0.4820670491          0.6377
H651       H    0.7205132697    0.5500506885    0.4944031827         -0.3379
H652       H    0.7374361684    0.5282320451    0.4540918639          0.6212
H653       H    0.7377046366    0.5004695363    0.5327521591         -0.3226
C654       C    0.8457914424    0.3956430693    0.5094992272          0.6259
H655       H    0.8655424051    0.3733749176    0.5105971230          0.6198
H656       H    0.8279229888    0.3907404448    0.4862416533          0.6035
H657       H    0.8297315655    0.3945452505    0.5345442560         -0.3543
H658       H    0.8836389971    0.4299037788    0.4823532071          0.6175
H659       H    0.8831229460    0.4333297544    0.5305244354         -0.3407
N660       N    0.6392659629    0.5000000000    0.5000000000         -0.3557
H661       H    0.8506118475    0.5618347391    0.4343606330          0.6229
H662       H    0.8627446697    0.6048044017    0.4525647621         -0.3456
H663       H    0.8174206274    0.5891760881    0.4576535972         -0.3494
O664       O    0.8572224743    0.5644489547    0.4905371958         -0.3284
C605       C    1.1392659629    0.5000000000    0.5000000000         -0.3436
C606       C    1.1561821541    0.5226596858    0.4760034662         -0.3532
C607       C    1.1931807493    0.5230566250    0.4753728138         -0.3556
C608       C    1.2134934739    0.5033062120    0.4987853499         -0.3471
C609       C    1.1958399588    0.4812996169    0.5220420292         -0.3377
C610       C    1.1593191305    0.4785479631    0.5224885439         -0.3366
C611       C    1.2547048478    0.5052815328    0.4998311069         -0.3476
H612       H    1.2071360279    0.5404986257    0.4561215273          0.6363
C613       C    1.1341172274    0.5459400453    0.4492138851          0.6373
C614       C    1.1540781964    0.4170607341    0.5387416106         -0.3515
H615       H    1.2112576336    0.4655847544    0.5417272656         -0.3301
C616       C    1.2749577126    0.4702664175    0.5076720968          0.6415
N617       N    1.3081286434    0.4778533366    0.4886602186           0.628
N618       N    1.3031638205    0.5040473786    0.4625664260          0.6195
N619       N    1.2713553175    0.5164367416    0.4647774980          0.6287
N620       N    1.3406471767    0.4733009635    0.5057104638          0.6377
H621       H    1.2794867303    0.4654921330    0.5366824604         -0.3379
H622       H    1.2625638316    0.4463342641    0.4950407545          0.6212
H623       H    1.2622953634    0.5259200055    0.5200269244         -0.3226
C624       C    1.1542085576    0.5702135401    0.4222139918          0.6259
H625       H    1.1344575949    0.5844527478    0.4050582079          0.6198
H626       H    1.1720770112    0.5545490557    0.4043373478          0.6035
H627       H    1.1702684345    0.5909082545    0.4363627540         -0.3543
H628       H    1.1163610029    0.5279402984    0.4333349473          0.6175
H629       H    1.1168770540    0.5644216957    0.4649784648         -0.3407
N630       N    1.3607340371    0.5000000000    0.5000000000         -0.3557
H631       H    1.1493881525    0.4103876630    0.5100841711          0.6229
H632       H    1.1372553303    0.3991691687    0.5553823786         -0.3456
H633       H    1.1825793726    0.4126172249    0.5459330288         -0.3494
O634       O    1.1427775257    0.4537603838    0.5458814812         -0.3284
C575       C    0.6392659629    0.5000000000    0.0000000000         -0.3436
C576       C    0.6561821541    0.4925813842    0.0321598995         -0.3532
C577       C    0.6931807493    0.4925577475    0.0329046978         -0.3556
C578       C    0.7134934739    0.4977615307    0.0027194977         -0.3471
C579       C    0.6958399588    0.5049907148   -0.0284718834         -0.3377
C580       C    0.6593191305    0.5071390626   -0.0302482773         -0.3366
C581       C    0.7547048478    0.4955285487    0.0028158901         -0.3476
H582       H    0.7071360279    0.4872418400    0.0583325673          0.6363
C583       C    0.6341172274    0.4860393331    0.0670433965          0.6373
C584       C    0.6540781964    0.5519724254   -0.0753571577         -0.3515
H585       H    0.7112576336    0.5085970788   -0.0534009744         -0.3301
C586       C    0.7749577126    0.5217749871   -0.0216517189          0.6415
N587       N    0.8081286434    0.5248408794   -0.0014128168           0.628
N588       N    0.8031638205    0.5154331727    0.0343434261          0.6195
N589       N    0.7713553175    0.5036259446    0.0386994011          0.6287
N590       N    0.8406471767    0.5201485581   -0.0184250795          0.6377
H591       H    0.7794867303    0.5112274809   -0.0490952081         -0.3379
H592       H    0.7625638316    0.5488093355   -0.0228528794          0.6212
H593       H    0.7622953634    0.4675115926   -0.0041746586         -0.3226
C594       C    0.6542085576    0.4787467447    0.1026104451          0.6259
H595       H    0.6344575949    0.4751347475    0.1246111140          0.6198
H596       H    0.6720770112    0.5012997093    0.1101147277          0.6035
H597       H    0.6702684345    0.4537384587    0.1008656513         -0.3543
H598       H    0.6163610029    0.5095971566    0.0716434513          0.6175
H599       H    0.6168770540    0.4621235452    0.0627856431         -0.3407
N600       N    0.8607340371    0.5000000000    0.0000000000         -0.3557
H601       H    0.6493881525    0.5722181349   -0.0540055778          0.6229
H602       H    0.6372553303    0.5589960048   -0.0987599910         -0.3456
H603       H    0.6825793726    0.5521704802   -0.0838083141         -0.3494
O604       O    0.6427775257    0.5166987562   -0.0629631953         -0.3284
C545       C    1.3607340371    0.5000000000    0.0000000000         -0.3436
C546       C    1.3438178459    0.5328131601   -0.0035484532         -0.3532
C547       C    1.3068192507    0.5335554978   -0.0034835077         -0.3556
C548       C    1.2865065261    0.5029659970   -0.0018998091         -0.3471
C549       C    1.3041600412    0.4711369943    0.0015755248         -0.3377
C550       C    1.3406808695    0.4691181307    0.0034978057         -0.3366
C551       C    1.2452951522    0.5033267853   -0.0041055588         -0.3476
H552       H    1.2928639721    0.5594346177   -0.0057432809          0.6363
C553       C    1.3658827726    0.5682266019   -0.0059032213          0.6373
C554       C    1.3459218036    0.4190060437    0.0426592695         -0.3515
H555       H    1.2887423664    0.4459560662    0.0021970529         -0.3301
C556       C    1.2250422874    0.4759164702    0.0190507373          0.6415
N557       N    1.1918713566    0.4956483098    0.0244975128           0.628
N558       N    1.1968361795    0.5322685085    0.0194009560          0.6195
N559       N    1.2286446825    0.5379953196    0.0081943156          0.6287
N560       N    1.1593528233    0.4793133675    0.0178188435          0.6377
H561       H    1.2205132697    0.4499191308    0.0053199933         -0.3379
H562       H    1.2374361684    0.4715145528    0.0457513347          0.6212
H563       H    1.2377046366    0.4997115630   -0.0327542545         -0.3226
C564       C    1.3457914424    0.6044078583   -0.0089220752          0.6259
H565       H    1.3655424051    0.6266817401   -0.0098968300          0.6198
H566       H    1.3279229888    0.6091818129    0.0143622506          0.6035
H567       H    1.3297315655    0.6056441384   -0.0339606512         -0.3543
H568       H    1.3836389971    0.5699975777    0.0180340968          0.6175
H569       H    1.3831229460    0.5668380011   -0.0301553380         -0.3407
N570       N    1.1392659629    0.5000000000    0.0000000000         -0.3557
H571       H    1.3506118475    0.4378032752    0.0652964691          0.6229
H572       H    1.3627446697    0.3949349231    0.0468550319         -0.3456
H573       H    1.3174206274    0.4105911347    0.0418526862         -0.3494
O574       O    1.3572224743    0.4354997091    0.0091063106         -0.3284
C515       C    1.0000000000    0.5000000000   -0.1392659629         -0.3436
C516       C    0.9683801647    0.4905405600   -0.1561821541         -0.3532
C517       C    0.9677211634    0.4901927086   -0.1931807493         -0.3556
C518       C    0.9965292655    0.5006003458   -0.2134934739         -0.3471
C519       C    1.0272136568    0.5097453712   -0.1958399588         -0.3377
C520       C    1.0298201563    0.5087568701   -0.1593191305         -0.3366
C521       C    0.9953410066    0.5024933700   -0.2547048478         -0.3476
H522       H    0.9429922350    0.4822356034   -0.2071360279          0.6363
C523       C    0.9348267982    0.4789721375   -0.1341172274          0.6373
C524       C    1.0912002358    0.4921037220   -0.1540781964         -0.3515
H525       H    1.0506635138    0.5189415468   -0.2112576336         -0.3301
C526       C    1.0295880811    0.4917846209   -0.2749577126          0.6415
N527       N    1.0135147534    0.4791094092   -0.3081286434           0.628
N528       N    0.9777854584    0.4695998705   -0.3031638205          0.6195
N529       N    0.9681595233    0.4777070603   -0.2713553175          0.6287
N530       N    1.0259793149    0.4916021939   -0.3406471767          0.6377
H531       H    1.0482223954    0.5145257141   -0.2794867303         -0.3379
H532       H    1.0440038219    0.4688829791   -0.2625638316          0.6212
H533       H    0.9875587240    0.5303008092   -0.2622953634         -0.3226
C534       C    0.9003081190    0.4677179127   -0.1542085576          0.6259
H535       H    0.8794005902    0.4599750970   -0.1344575949          0.6198
H536       H    0.9049412971    0.4444051666   -0.1720770112          0.6035
H537       H    0.8894548665    0.4903158237   -0.1702684345         -0.3543
H538       H    0.9424810894    0.4562225577   -0.1163610029          0.6175
H539       H    0.9266979529    0.5018635168   -0.1168770540         -0.3407
N540       N    1.0000000000    0.5000000000   -0.3607340371         -0.3557
H541       H    1.0826573991    0.4639470414   -0.1493881525          0.6229
H542       H    1.1150138427    0.4975750473   -0.1372553303         -0.3456
H543       H    1.0986431642    0.4961117249   -0.1825793726         -0.3494
O544       O    1.0629813883    0.5166300076   -0.1427775257         -0.3284
C485       C    1.0000000000    0.5000000000    0.3607340371         -0.3436
C486       C    1.0071158425    0.4677717550    0.3438178459         -0.3532
C487       C    1.0074144445    0.4670890251    0.3068192507         -0.3556
C488       C    0.9991468201    0.4965826184    0.2865065261         -0.3471
C489       C    0.9922759660    0.5278548861    0.3041600412         -0.3377
C490       C    0.9934528971    0.5303819015    0.3406808695         -0.3366
C491       C    0.9971717754    0.4955363402    0.2452951522         -0.3476
H492       H    1.0135371875    0.4418432841    0.2928639721          0.6363
C493       C    1.0161932394    0.4334605664    0.3658827726          0.6373
C494       C    1.0145611835    0.5903759158    0.3459218036         -0.3515
H495       H    0.9848237146    0.5519158375    0.2887423664         -0.3301
C496       C    1.0103624596    0.5289061659    0.2250422874          0.6415
N497       N    1.0218251798    0.5119468351    0.1918713566           0.628
N498       N    1.0286897098    0.4756165161    0.1968361795          0.6195
N499       N    1.0198986312    0.4666108462    0.2286446825          0.6287
N500       N    1.0102798266    0.5252937366    0.1593528233          0.6377
H501       H    0.9890486988    0.5491575506    0.2205132697         -0.3379
H502       H    1.0342593327    0.5416041278    0.2374361684          0.6212
H503       H    0.9688686245    0.4898136441    0.2377046366         -0.3226
C504       C    1.0248865142    0.3982096974    0.3457914424          0.6259
H505       H    1.0310757022    0.3767907827    0.3655424051          0.6198
H506       H    1.0484761972    0.4011212823    0.3279229888          0.6035
H507       H    1.0015537309    0.3890423697    0.3297315655         -0.3543
H508       H    1.0394427581    0.4394264219    0.3836389971          0.6175
H509       H    0.9927675117    0.4270318294    0.3831229460         -0.3407
N510       N    1.0000000000    0.5000000000    0.1392659629         -0.3557
H511       H    1.0420157939    0.5797918198    0.3506118475          0.6229
H512       H    1.0108504263    0.6145265587    0.3627446697         -0.3456
H513       H    1.0111096289    0.5980926535    0.3174206274         -0.3494
O514       O    0.9880320927    0.5640310988    0.3572224743         -0.3284
C455       C    1.0000000000   -0.3607340371    0.5000000000         -0.3436
C456       C    0.9683801647   -0.3438178459    0.4905405600         -0.3532
C457       C    0.9677211634   -0.3068192507    0.4901927086         -0.3556
C458       C    0.9965292655   -0.2865065261    0.5006003458         -0.3471
C459       C    1.0272136568   -0.3041600412    0.5097453712         -0.3377
C460       C    1.0298201563   -0.3406808695    0.5087568701         -0.3366
C461       C    0.9953410066   -0.2452951522    0.5024933700         -0.3476
H462       H    0.9429922350   -0.2928639721    0.4822356034          0.6363
C463       C    0.9348267982   -0.3658827726    0.4789721375          0.6373
C464       C    1.0912002358   -0.3459218036    0.4921037220         -0.3515
H465       H    1.0506635138   -0.2887423664    0.5189415468         -0.3301
C466       C    1.0295880811   -0.2250422874    0.4917846209          0.6415
N467       N    1.0135147534   -0.1918713566    0.4791094092           0.628
N468       N    0.9777854584   -0.1968361795    0.4695998705          0.6195
N469       N    0.9681595233   -0.2286446825    0.4777070603          0.6287
N470       N    1.0259793149   -0.1593528233    0.4916021939          0.6377
H471       H    1.0482223954   -0.2205132697    0.5145257141         -0.3379
H472       H    1.0440038219   -0.2374361684    0.4688829791          0.6212
H473       H    0.9875587240   -0.2377046366    0.5303008092         -0.3226
C474       C    0.9003081190   -0.3457914424    0.4677179127          0.6259
H475       H    0.8794005902   -0.3655424051    0.4599750970          0.6198
H476       H    0.9049412971   -0.3279229888    0.4444051666          0.6035
H477       H    0.8894548665   -0.3297315655    0.4903158237         -0.3543
H478       H    0.9424810894   -0.3836389971    0.4562225577          0.6175
H479       H    0.9266979529   -0.3831229460    0.5018635168         -0.3407
N480       N    1.0000000000   -0.1392659629    0.5000000000         -0.3557
H481       H    1.0826573991   -0.3506118475    0.4639470414          0.6229
H482       H    1.1150138427   -0.3627446697    0.4975750473         -0.3456
H483       H    1.0986431642   -0.3174206274    0.4961117249         -0.3494
O484       O    1.0629813883   -0.3572224743    0.5166300076         -0.3284
C425       C    1.0000000000    0.1392659629    0.5000000000         -0.3436
C426       C    1.0322350742    0.1561821541    0.4929151580         -0.3532
C427       C    1.0329800775    0.1931807493    0.4928992432         -0.3556
C428       C    1.0027425560    0.2134934739    0.4977898418         -0.3471
C429       C    0.9714779118    0.1958399588    0.5046953021         -0.3377
C430       C    0.9696793432    0.1593191305    0.5068251201         -0.3366
C431       C    1.0028620906    0.2547048478    0.4955579790         -0.3476
H432       H    1.0584616864    0.2071360279    0.4878472111          0.6363
C433       C    1.0671845129    0.1341172274    0.4867350668          0.6373
C434       C    0.9241081360    0.1540781964    0.5511884674         -0.3515
H435       H    0.9465127761    0.2112576336    0.5080430531         -0.3301
C436       C    0.9781237211    0.2749577126    0.5215493717          0.6415
N437       N    0.9983297543    0.3081286434    0.5248248992           0.628
N438       N    1.0341815978    0.3031638205    0.5157883534          0.6195
N439       N    1.0386597346    0.2713553175    0.5040269146          0.6287
N440       N    0.9813670470    0.3406471767    0.5199564779          0.6377
H441       H    0.9507910438    0.2794867303    0.5107179481         -0.3379
H442       H    0.9766423824    0.2625638316    0.5485698161          0.6212
H443       H    0.9961623462    0.2622953634    0.4674700630         -0.3226
C444       C    1.1028252467    0.1542085576    0.4798115644          0.6259
H445       H    1.1248621761    0.1344575949    0.4764278241          0.6198
H446       H    1.1100953382    0.1720770112    0.5024411080          0.6035
H447       H    1.1013397870    0.1702684345    0.4547865353         -0.3543
H448       H    1.0715401161    0.1163610029    0.5103393095          0.6175
H449       H    1.0631749035    0.1168770540    0.4627764273         -0.3407
N450       N    1.0000000000    0.3607340371    0.5000000000         -0.3557
H451       H    0.9452486981    0.1493881525    0.5716544234          0.6229
H452       H    0.9006337525    0.1372553303    0.5579690716         -0.3456
H453       H    0.9156553806    0.1825793726    0.5512989055         -0.3494
O454       O    0.9368670855    0.1427775257    0.5160451715         -0.3284
C395       C    0.8607340371   -0.0000000000    0.5000000000         -0.3436
C396       C    0.8438178459    0.0161931624    0.5287589375         -0.3532
C397       C    0.8068192507    0.0164260339    0.5294667892         -0.3556
C398       C    0.7865065261    0.0029149680    0.5019772138         -0.3471
C399       C    0.8041600412   -0.0128231294    0.4740939634         -0.3377
C400       C    0.8406808695   -0.0153854783    0.4729960826         -0.3366
C401       C    0.7452951522    0.0050843834    0.5014394995         -0.3476
H402       H    0.7928639721    0.0287020607    0.5523607751          0.6363
C403       C    0.8658827726    0.0323140413    0.5603781415          0.6373
C404       C    0.8459218036   -0.0711269255    0.4423736632         -0.3515
H405       H    0.7887423664   -0.0233183409    0.4511960165         -0.3301
C406       C    0.7250422874   -0.0270003496    0.4853737183          0.6415
N407       N    0.6918713566   -0.0242298258    0.5056551644           0.628
N408       N    0.6968361795   -0.0051134748    0.5373028968          0.6195
N409       N    0.7286446825    0.0074431279    0.5381495867          0.6287
N410       N    0.6593528233   -0.0245294179    0.4880101875          0.6377
H411       H    0.7205132697   -0.0246266517    0.4560691019         -0.3379
H412       H    0.7374361684   -0.0532747471    0.4918509723          0.6212
H413       H    0.7377046366    0.0299895956    0.4868262177         -0.3226
C414       C    0.8457914424    0.0493478590    0.5924412955          0.6259
H415       H    0.8655424051    0.0590220204    0.6125282703          0.6198
H416       H    0.8279229888    0.0298295133    0.6060053897          0.6035
H417       H    0.8297315655    0.0728471509    0.5837096315         -0.3543
H418       H    0.8836389971    0.0110120577    0.5714396537          0.6175
H419       H    0.8831229460    0.0540560417    0.5495439921         -0.3335
N420       N    0.6392659629   -0.0000000000    0.5000000000         -0.3557
H421       H    0.8506118475   -0.0845238450    0.4685710155          0.6229
H422       H    0.8627446697   -0.0844697054    0.4219043326         -0.3456
H423       H    0.8174206274   -0.0737020003    0.4343219392         -0.3494
O424       O    0.8572224743   -0.0337893205    0.4443089393         -0.3284
C365       C    1.1392659629   -0.0000000000    0.5000000000         -0.3436
C366       C    1.1561821541    0.0096381382    0.4684341753         -0.3532
C367       C    1.1931807493    0.0097135363    0.4676928263         -0.3556
C368       C    1.2134934739    0.0024222519    0.4974428319         -0.3471
C369       C    1.1958399588   -0.0069595297    0.5280556648         -0.3377
C370       C    1.1593191305   -0.0092262629    0.5296782845         -0.3366
C371       C    1.2547048478    0.0046565293    0.4975020311         -0.3476
H372       H    1.2071360279    0.0167856859    0.4426964242          0.6363
C373       C    1.1341172274    0.0185913279    0.4340903667          0.6373
C374       C    1.1540781964   -0.0570893988    0.5715586107         -0.3515
H375       H    1.2112576336   -0.0122915763    0.5526734371         -0.3301
C376       C    1.2749577126   -0.0232286226    0.5200842747          0.6415
N377       N    1.3081286434   -0.0248789801    0.4996811088           0.628
N378       N    1.3031638205   -0.0130063583    0.4646660450          0.6195
N379       N    1.2713553175   -0.0009246782    0.4611421039          0.6287
N380       N    1.3406471767   -0.0213816439    0.5169786116          0.6377
H381       H    1.2794867303   -0.0146160341    0.5481950965         -0.3379
H382       H    1.2625638316   -0.0502810306    0.5194016312          0.6212
H383       H    1.2622953634    0.0321192322    0.5064248975         -0.3226
C384       C    1.1542085576    0.0283407937    0.3991168810          0.6259
H385       H    1.1344575949    0.0334747173    0.3774208264          0.6198
H386       H    1.1720770112    0.0063645844    0.3900616783          0.6035
H387       H    1.1702684345    0.0531670865    0.4025973783         -0.3543
H388       H    1.1163610029   -0.0045893647    0.4278624421          0.6175
H389       H    1.1168770540    0.0421529328    0.4400017245         -0.3407
N390       N    1.3607340371   -0.0000000000    0.5000000000         -0.3557
H391       H    1.1493881525   -0.0758005294    0.5488501913          0.6229
H392       H    1.1372553303   -0.0657241920    0.5944160738         -0.3456
H393       H    1.1825793726   -0.0578749562    0.5799755086         -0.3494
O394       O    1.1427775257   -0.0210389055    0.5616488190         -0.3284
C335       C   -0.0000000000   -0.1392659629    0.0000000000         -0.3436
C336       C    0.0321720245   -0.1561821541   -0.0073658558         -0.3532
C337       C    0.0328524154   -0.1931807493   -0.0076697496         -0.3556
C338       C    0.0034239029   -0.2134934739    0.0008266208         -0.3471
C339       C   -0.0277940752   -0.1958399588    0.0079400732         -0.3377
C340       C   -0.0303301525   -0.1593191305    0.0067827979         -0.3366
C341       C    0.0044854843   -0.2547048478    0.0027934825         -0.3476
H342       H    0.0580498570   -0.2071360279   -0.0139883220          0.6363
C343       C    0.0664116998   -0.1341172274   -0.0167093793          0.6373
C344       C   -0.0904862482   -0.1540781964   -0.0138590445         -0.3515
H345       H   -0.0517964404   -0.2112576336    0.0155789149         -0.3301
C346       C   -0.0289857512   -0.2749577126   -0.0101377130          0.6415
N347       N   -0.0121159308   -0.3081286434   -0.0217317639           0.628
N348       N    0.0241599952   -0.3031638205   -0.0288781642          0.6195
N349       N    0.0332336497   -0.2713553175   -0.0201572728          0.6287
N350       N   -0.0253727892   -0.3406471767   -0.0100831302          0.6377
H351       H   -0.0490710404   -0.2794867303    0.0113326420         -0.3379
H352       H   -0.0418688714   -0.2625638316   -0.0339352757          0.6212
H353       H    0.0104277603   -0.2622953634    0.0310513478         -0.3226
C354       C    0.1015940096   -0.1542085576   -0.0256760881          0.6259
H355       H    0.1229642244   -0.1344575949   -0.0320313911          0.6198
H356       H    0.0984993566   -0.1720770112   -0.0492424539          0.6035
H357       H    0.1109422223   -0.1702684345   -0.0024151855         -0.3543
H358       H    0.0602655093   -0.1163610029   -0.0399118769          0.6175
H359       H    0.0730221259   -0.1168770540    0.0066657281         -0.3407
N360       N   -0.0000000000   -0.3607340371    0.0000000000         -0.3557
H361       H   -0.0801156353   -0.1493881525   -0.0413950048          0.6229
H362       H   -0.1146073519   -0.1372553303   -0.0099608879         -0.3456
H363       H   -0.0981759546   -0.1825793726   -0.0103476794         -0.3494
O364       O   -0.0639362471   -0.1427775257    0.0124646992         -0.3284
C305       C    0.0000000000    0.1392659629    0.0000000000         -0.3436
C306       C    0.0153989796    0.1561821541   -0.0291918896         -0.3532
C307       C    0.0158677711    0.1931807493   -0.0297711286         -0.3556
C308       C    0.0000825735    0.2134934739   -0.0035213058         -0.3471
C309       C   -0.0148269289    0.1958399588    0.0248136567         -0.3377
C310       C   -0.0143614567    0.1593191305    0.0275621671         -0.3366
C311       C   -0.0015447511    0.2547048478   -0.0050534006         -0.3476
H312       H    0.0284594452    0.2071360279   -0.0524930380          0.6363
C313       C    0.0332412147    0.1341172274   -0.0598726889          0.6373
C314       C   -0.0098998379    0.1540781964    0.0910045462         -0.3515
H315       H   -0.0283867610    0.2112576336    0.0460409125         -0.3301
C316       C    0.0023349405    0.2749577126    0.0306185409          0.6415
N317       N    0.0178807294    0.3081286434    0.0173015854           0.628
N318       N    0.0341240251    0.3031638205   -0.0159124055          0.6195
N319       N    0.0280326329    0.2713553175   -0.0269251297          0.6287
N320       N    0.0032122018    0.3406471767    0.0271132755          0.6377
H321       H   -0.0235820360    0.2794867303    0.0445003748         -0.3379
H322       H    0.0220143767    0.2625638316    0.0491932165          0.6212
H323       H   -0.0273208183    0.2622953634   -0.0180692356         -0.3226
C324       C    0.0509619743    0.1542085576   -0.0915613536          0.6259
H325       H    0.0626039831    0.1344575949   -0.1105755480          0.6198
H326       H    0.0729376326    0.1720770112   -0.0825048136          0.6035
H327       H    0.0308912014    0.1702684345   -0.1065820974         -0.3543
H328       H    0.0540797764    0.1163610029   -0.0479611021          0.6175
H329       H    0.0123553577    0.1168770540   -0.0722772989         -0.3407
N330       N    0.0000000000    0.3607340371    0.0000000000         -0.3557
H331       H    0.0193777162    0.1493881525    0.0880713663          0.6229
H332       H   -0.0198755996    0.1372553303    0.1133094212         -0.3456
H333       H   -0.0152722710    0.1825793726    0.0975312784         -0.3494
O334       O   -0.0285023673    0.1427775257    0.0585732659         -0.3284
C275       C   -0.1392659629   -0.0000000000    0.0000000000         -0.3436
C276       C   -0.1561821541    0.0079841165   -0.0320241921         -0.3532
C277       C   -0.1931807493    0.0083010581   -0.0326986038         -0.3556
C278       C   -0.2134934739   -0.0007605238   -0.0034391883         -0.3471
C279       C   -0.1958399588   -0.0084739089    0.0276359955         -0.3377
C280       C   -0.1593191305   -0.0073656926    0.0301938912         -0.3366
C281       C   -0.2547048478   -0.0027065748   -0.0045384542         -0.3476
H282       H   -0.2071360279    0.0151037563   -0.0577696772          0.6363
C283       C   -0.1341172274    0.0179853563   -0.0660775619          0.6373
C284       C   -0.1540781964    0.0121137263    0.0907363866         -0.3515
H285       H   -0.2112576336   -0.0165736146    0.0514867860         -0.3301
C286       C   -0.2749577126    0.0095775726    0.0291756251          0.6415
N287       N   -0.3081286434    0.0214943825    0.0125322330           0.628
N288       N   -0.3031638205    0.0293381245   -0.0235993260          0.6195
N289       N   -0.2713553175    0.0207936075   -0.0328392601          0.6287
N290       N   -0.3406471767    0.0095925849    0.0255622820          0.6377
H291       H   -0.2794867303   -0.0122756386    0.0488436739         -0.3379
H292       H   -0.2625638316    0.0331225949    0.0425146920          0.6212
H293       H   -0.2622953634   -0.0308447516   -0.0110238690         -0.3226
C294       C   -0.1542085576    0.0276280064   -0.1010806488          0.6259
H295       H   -0.1344575949    0.0343937168   -0.1223244978          0.6198
H296       H   -0.1720770112    0.0511303985   -0.0975326861          0.6035
H297       H   -0.1702684345    0.0045514631   -0.1108751279         -0.3543
H298       H   -0.1163610029    0.0410651757   -0.0594856359          0.6175
H299       H   -0.1168770540   -0.0052580997   -0.0731369619         -0.3407
N300       N   -0.3607340371   -0.0000000000    0.0000000000         -0.3557
H301       H   -0.1493881525    0.0398443150    0.0808980347          0.6229
H302       H   -0.1372553303    0.0077517249    0.1147779385         -0.3456
H303       H   -0.1825793726    0.0084549102    0.0983570385         -0.3494
O304       O   -0.1427775257   -0.0136937869    0.0636843201         -0.3284
C245       C    0.3607340371   -0.0000000000    0.0000000000         -0.3436
C246       C    0.3438178459   -0.0327484994    0.0041025333         -0.3532
C247       C    0.3068192507   -0.0334918288    0.0040501435         -0.3556
C248       C    0.2865065261   -0.0029334640    0.0019496671         -0.3471
C249       C    0.3041600412    0.0288322545   -0.0020631237         -0.3377
C250       C    0.3406808695    0.0308183405   -0.0040192516         -0.3366
C251       C    0.2452951522   -0.0032569206    0.0041611996         -0.3476
H252       H    0.2928639721   -0.0593290589    0.0067469863          0.6363
C253       C    0.3658827726   -0.0681170841    0.0070555003          0.6373
C254       C    0.3459218036    0.0802613877   -0.0440220839         -0.3515
H255       H    0.2887423664    0.0539990811   -0.0031101549         -0.3301
C256       C    0.2250422874    0.0237581064   -0.0194550604          0.6415
N257       N    0.1918713566    0.0039370274   -0.0245675631           0.628
N258       N    0.1968361795   -0.0325918018   -0.0188528032          0.6195
N259       N    0.2286446825   -0.0381283875   -0.0075509727          0.6287
N260       N    0.1593528233    0.0203825150   -0.0181659305          0.6377
H261       H    0.2205132697    0.0499838006   -0.0061656680         -0.3379
H262       H    0.2374361684    0.0277081188   -0.0462262424          0.6212
H263       H    0.2377046366    0.0008419872    0.0327447010         -0.3226
C264       C    0.3457914424   -0.1042421497    0.0106854354          0.6259
H265       H    0.3655424051   -0.1264963752    0.0120365097          0.6198
H266       H    0.3279229888   -0.1094089591   -0.0125148782          0.6035
H267       H    0.3297315655   -0.1050550673    0.0357413297         -0.3543
H268       H    0.3836389971   -0.0702923801   -0.0168484667          0.6175
H269       H    0.3831229460   -0.0663187879    0.0312806836         -0.3407
N270       N    0.1392659629   -0.0000000000    0.0000000000         -0.3557
H271       H    0.3506118475    0.0610842417   -0.0663383514          0.6229
H272       H    0.3627446697    0.1042581560   -0.0486240817         -0.3456
H273       H    0.3174206274    0.0886887271   -0.0433578392         -0.3494
O274       O    0.3572224743    0.0643371688   -0.0101951524         -0.3284
C215       C   -0.0000000000   -0.0000000000   -0.1392659629         -0.3436
C216       C    0.0315971177    0.0095350484   -0.1561821541         -0.3532
C217       C    0.0322552850    0.0098844751   -0.1931807493         -0.3556
C218       C    0.0034721606   -0.0005920420   -0.2134934739         -0.3471
C219       C   -0.0271902678   -0.0098104391   -0.1958399588         -0.3377
C220       C   -0.0297991243   -0.0088281756   -0.1593191305         -0.3366
C221       C    0.0046649443   -0.0024822184   -0.2547048478         -0.3476
H222       H    0.0569651090    0.0179007097   -0.2071360279          0.6363
C223       C    0.0651227162    0.0211836982   -0.1341172274          0.6373
C224       C   -0.0912188630    0.0076781024   -0.1540781964         -0.3515
H225       H   -0.0506180602   -0.0190626810   -0.2112576336         -0.3301
C226       C   -0.0296076478    0.0081445802   -0.2749577126          0.6415
N227       N   -0.0135646855    0.0208582034   -0.3081286434           0.628
N228       N    0.0221417602    0.0304531803   -0.3031638205          0.6195
N229       N    0.0317870604    0.0223690391   -0.2713553175          0.6287
N230       N   -0.0259993283    0.0083356389   -0.3406471767          0.6377
H231       H   -0.0481875116   -0.0146410216   -0.2794867303         -0.3379
H232       H   -0.0440781286    0.0310116737   -0.2625638316          0.6212
H233       H    0.0125137206   -0.0302709627   -0.2622953634         -0.3226
C234       C    0.0996143763    0.0325204603   -0.1542085576          0.6259
H235       H    0.1205033243    0.0403132651   -0.1344575949          0.6198
H236       H    0.0949254468    0.0558220570   -0.1720770112          0.6035
H237       H    0.1105216525    0.0099485751   -0.1702684345         -0.3543
H238       H    0.0574140294    0.0439149036   -0.1163610029          0.6175
H239       H    0.0733062949   -0.0016881713   -0.1168770540         -0.3407
N240       N   -0.0000000000    0.0000000000   -0.3607340371         -0.3557
H241       H   -0.0827434021    0.0358551370   -0.1493881525          0.6229
H242       H   -0.1150193142    0.0021498300   -0.1372553303         -0.3456
H243       H   -0.0986521828    0.0036523073   -0.1825793726         -0.3494
O244       O   -0.0629414287   -0.0167806129   -0.1427775257         -0.3284
C185       C    0.0000000000    0.0000000000    0.3607340371         -0.3436
C186       C    0.0325558846    0.0054230406    0.3438178459         -0.3532
C187       C    0.0332532771    0.0056855801    0.3068192507         -0.3556
C188       C    0.0033681616   -0.0010304853    0.2865065261         -0.3471
C189       C   -0.0282202558   -0.0062587970    0.3041600412         -0.3377
C190       C   -0.0306823587   -0.0049515008    0.3406808695         -0.3366
C191       C    0.0043098671   -0.0030574759    0.2452951522         -0.3476
H192       H    0.0587843223    0.0104815315    0.2928639721          0.6363
C193       C    0.0672943108    0.0126961789    0.3658827726          0.6373
C194       C   -0.0894921430    0.0192611154    0.3459218036         -0.3515
H195       H   -0.0526375607   -0.0124443171    0.2887423664         -0.3301
C196       C   -0.0283255500    0.0118579179    0.2250422874          0.6415
N197       N   -0.0107907316    0.0224193098    0.1918713566           0.628
N198       N    0.0258485046    0.0273771537    0.1968361795          0.6195
N199       N    0.0343827791    0.0181277584    0.2286446825          0.6287
N200       N   -0.0247223657    0.0115867416    0.1593528233          0.6377
H201       H   -0.0496623918   -0.0083691474    0.2205132697         -0.3379
H202       H   -0.0397581911    0.0363853208    0.2374361684          0.6212
H203       H    0.0085466470   -0.0316208667    0.2377046366         -0.3226
C204       C    0.1029510747    0.0195366454    0.3457914424          0.6259
H205       H    0.1246639858    0.0245988037    0.3655424051          0.6198
H206       H    0.1012754133    0.0432461926    0.3279229888          0.6035
H207       H    0.1108873586   -0.0042430533    0.3297315655         -0.3543
H208       H    0.0625507819    0.0362255327    0.3836389971          0.6175
H209       H    0.0724908872   -0.0110333168    0.3831229460         -0.3407
N210       N    0.0000000000    0.0000000000    0.1392659629         -0.3557
H211       H   -0.0774886975    0.0461255159    0.3506118475          0.6229
H212       H   -0.1138036207    0.0168166679    0.3627446697         -0.3456
H213       H   -0.0973786047    0.0162172706    0.3174206274         -0.3494
O214       O   -0.0645687347   -0.0086076083    0.3572224743         -0.3284
loop_
_geom_bond_atom_site_label_1
_geom_bond_atom_site_label_2
_geom_bond_distance
_geom_bond_site_symmetry_2
_ccdc_geom_bond_type
Zn1          O5 1.942       .   S
Zn1          O6 1.922       .   S
Zn1         O10 1.922       .   S
Zn1         O17 1.922       .   S
Zn2          O5 1.942       .   S
Zn2          O7 1.922       .   S
Zn2          O9 1.922       .   S
Zn2         O13 1.922       .   S
Zn3          O5 1.942       .   S
Zn3          O8 1.922       .   S
Zn3         O11 1.922       .   S
Zn3         O14 1.922       .   S
Zn4          O5 1.942       .   S
Zn4         O12 1.922       .   S
Zn4         O15 1.922       .   S
Zn4         O16 1.922       .   S
O6          C18 1.304       .   A
O7          C19 1.304       .   A
O8          C20 1.304       .   A
O9          C18 1.304       .   A
O10         C20 1.304       .   A
O11         C19 1.304       .   A
O12         C21 1.304       .   A
O13         C22 1.304       .   A
O14         C21 1.304       .   A
O15         C22 1.304       .   A
O16         C23 1.304       .   A
O17         C23 1.304       .   A
C18        C335 1.540       .   S
C19        N270 1.540       .   S
C20        C215 1.540       .   S
C21        C305 1.540       .   S
C22        N210 1.540       .   S
C23        C275 1.540       .   S
Zn24        O28 1.942       .   S
Zn24        O29 1.922       .   S
Zn24        O33 1.922       .   S
Zn24        O40 1.922       .   S
Zn25        O28 1.942       .   S
Zn25        O30 1.922       .   S
Zn25        O32 1.922       .   S
Zn25        O36 1.922       .   S
Zn26        O28 1.942       .   S
Zn26        O31 1.922       .   S
Zn26        O34 1.922       .   S
Zn26        O37 1.922       .   S
Zn27        O28 1.942       .   S
Zn27        O35 1.922       .   S
Zn27        O38 1.922       .   S
Zn27        O39 1.922       .   S
O29         C41 1.304       .   A
O30         C42 1.304       .   A
O31         C43 1.304       .   A
O32         C41 1.304       .   A
O33         C43 1.304       .   A
O34         C42 1.304       .   A
O35         C44 1.304       .   A
O36         C45 1.304       .   A
O37         C44 1.304       .   A
O38         C45 1.304       .   A
O39         C46 1.304       .   A
O40         C46 1.304       .   A
C41        C185 1.540   1_655   S
C42        C365 1.540       .   S
C43        C425 1.540       .   S
C44        N240 1.540   1_656   S
C45        N480 1.540       .   S
C46        C395 1.540       .   S
Zn47        O51 1.942       .   S
Zn47        O52 1.922       .   S
Zn47        O56 1.922       .   S
Zn47        O63 1.922       .   S
Zn48        O51 1.942       .   S
Zn48        O53 1.922       .   S
Zn48        O55 1.922       .   S
Zn48        O59 1.922       .   S
Zn49        O51 1.942       .   S
Zn49        O54 1.922       .   S
Zn49        O57 1.922       .   S
Zn49        O60 1.922       .   S
Zn50        O51 1.942       .   S
Zn50        O58 1.922       .   S
Zn50        O61 1.922       .   S
Zn50        O62 1.922       .   S
O52         C64 1.304       .   A
O53         C65 1.304       .   A
O54         C66 1.304       .   A
O55         C64 1.304       .   A
O56         C66 1.304       .   A
O57         C65 1.304       .   A
O58         C67 1.304       .   A
O59         C68 1.304       .   A
O60         C67 1.304       .   A
O61         C68 1.304       .   A
O62         C69 1.304       .   A
O63         C69 1.304       .   A
C64        N330 1.540   1_655   S
C65        N510 1.540       .   S
C66        N570 1.540       .   S
C67        N360 1.540   1_665   S
C68        N600 1.540       .   S
C69        C515 1.540       .   S
Zn70        O74 1.942       .   S
Zn70        O75 1.922       .   S
Zn70        O79 1.922       .   S
Zn70        O86 1.922       .   S
Zn71        O74 1.942       .   S
Zn71        O76 1.922       .   S
Zn71        O78 1.922       .   S
Zn71        O82 1.922       .   S
Zn72        O74 1.942       .   S
Zn72        O77 1.922       .   S
Zn72        O80 1.922       .   S
Zn72        O83 1.922       .   S
Zn73        O74 1.942       .   S
Zn73        O81 1.922       .   S
Zn73        O84 1.922       .   S
Zn73        O85 1.922       .   S
O75         C87 1.304       .   A
O76         C88 1.304       .   A
O77         C89 1.304       .   A
O78         C87 1.304       .   A
O79         C89 1.304       .   A
O80         C88 1.304       .   A
O81         C90 1.304       .   A
O82         C91 1.304       .   A
O83         C90 1.304       .   A
O84         C91 1.304       .   A
O85         C92 1.304       .   A
O86         C92 1.304       .   A
C87        N450 1.540       .   S
C88        C485 1.540       .   S
C89        C635 1.540       .   S
C90        C455 1.540   1_565   S
C91        C605 1.540       .   S
C92        N540 1.540   1_556   S
Zn93        O97 1.942       .   S
Zn93        O98 1.922       .   S
Zn93       O102 1.922       .   S
Zn93       O109 1.922       .   S
Zn94        O97 1.942       .   S
Zn94        O99 1.922       .   S
Zn94       O101 1.922       .   S
Zn94       O105 1.922       .   S
Zn95        O97 1.942       .   S
Zn95       O100 1.922       .   S
Zn95       O103 1.922       .   S
Zn95       O106 1.922       .   S
Zn96        O97 1.942       .   S
Zn96       O104 1.922       .   S
Zn96       O107 1.922       .   S
Zn96       O108 1.922       .   S
O98        C110 1.304       .   A
O99        C111 1.304       .   A
O100       C112 1.304       .   A
O101       C110 1.304       .   A
O102       C112 1.304       .   A
O103       C111 1.304       .   A
O104       C113 1.304       .   A
O105       C114 1.304       .   A
O106       C113 1.304       .   A
O107       C114 1.304       .   A
O108       C115 1.304       .   A
O109       C115 1.304       .   A
C110       C245 1.540   1_565   S
C111       N690 1.540       .   S
C112       C755 1.540       .   S
C113       N300 1.540   1_665   S
C114       C725 1.540       .   S
C115       N720 1.540       .   S
Zn116      O120 1.942       .   S
Zn116      O121 1.922       .   S
Zn116      O125 1.922       .   S
Zn116      O132 1.922       .   S
Zn117      O120 1.942       .   S
Zn117      O122 1.922       .   S
Zn117      O124 1.922       .   S
Zn117      O128 1.922       .   S
Zn118      O120 1.942       .   S
Zn118      O123 1.922       .   S
Zn118      O126 1.922       .   S
Zn118      O129 1.922       .   S
Zn119      O120 1.942       .   S
Zn119      O127 1.922       .   S
Zn119      O130 1.922       .   S
Zn119      O131 1.922       .   S
O121       C133 1.304       .   A
O122       C134 1.304       .   A
O123       C135 1.304       .   A
O124       C133 1.304       .   A
O125       C135 1.304       .   A
O126       C134 1.304       .   A
O127       C136 1.304       .   A
O128       C137 1.304       .   A
O129       C136 1.304       .   A
O130       C137 1.304       .   A
O131       C138 1.304       .   A
O132       C138 1.304       .   A
C133       N390 1.540   1_465   S
C134       C665 1.540       .   S
C135       C785 1.540       .   S
C136       N420 1.540   1_565   S
C137       N840 1.540       .   S
C138       C695 1.540   1_556   S
Zn139      O143 1.942       .   S
Zn139      O144 1.922       .   S
Zn139      O148 1.922       .   S
Zn139      O155 1.922       .   S
Zn140      O143 1.942       .   S
Zn140      O145 1.922       .   S
Zn140      O147 1.922       .   S
Zn140      O151 1.922       .   S
Zn141      O143 1.942       .   S
Zn141      O146 1.922       .   S
Zn141      O149 1.922       .   S
Zn141      O152 1.922       .   S
Zn142      O143 1.942       .   S
Zn142      O150 1.922       .   S
Zn142      O153 1.922       .   S
Zn142      O154 1.922       .   S
O144       C156 1.304       .   A
O145       C157 1.304       .   A
O146       C158 1.304       .   A
O147       C156 1.304       .   A
O148       C158 1.304       .   A
O149       C157 1.304       .   A
O150       C159 1.304       .   A
O151       C160 1.304       .   A
O152       C159 1.304       .   A
O153       C160 1.304       .   A
O154       C161 1.304       .   A
O155       C161 1.304       .   A
C156       C545 1.540   1_455   S
C157       N750 1.540   1_545   S
C158       N900 1.540       .   S
C159       C575 1.540       .   S
C160       C845 1.540       .   S
C161       N780 1.540       .   S
Zn162      O166 1.942       .   S
Zn162      O167 1.922       .   S
Zn162      O171 1.922       .   S
Zn162      O178 1.922       .   S
Zn163      O166 1.942       .   S
Zn163      O168 1.922       .   S
Zn163      O170 1.922       .   S
Zn163      O174 1.922       .   S
Zn164      O166 1.942       .   S
Zn164      O169 1.922       .   S
Zn164      O172 1.922       .   S
Zn164      O175 1.922       .   S
Zn165      O166 1.942       .   S
Zn165      O173 1.922       .   S
Zn165      O176 1.922       .   S
Zn165      O177 1.922       .   S
O167       C179 1.304       .   A
O168       C180 1.304       .   A
O169       C181 1.304       .   A
O170       C179 1.304       .   A
O171       C181 1.304       .   A
O172       C180 1.304       .   A
O173       C182 1.304       .   A
O174       C183 1.304       .   A
O175       C182 1.304       .   A
O176       C183 1.304       .   A
O177       C184 1.304       .   A
O178       C184 1.304       .   A
C179       N870 1.540       .   S
C180       N630 1.540   1_455   S
C181       N810 1.540   1_545   S
C182       C875 1.540   1_556   S
C183       C815 1.540       .   S
C184       N660 1.540       .   S
C875       C876 0.034       .   A
C875       C880 0.034       .   A
C876       C877 0.034       .   A
C876       C883 0.038       .   A
C877       C878 0.034       .   A
C877       H882 0.027       .   A
C878       C879 0.034       .   A
C878       C881 0.038       .   A
C879       C880 0.034       .   A
C879       H885 0.027       .   A
C880       O904 0.035       .   A
C881       C886 0.038       .   A
C881       N889 0.037       .   A
C881       H893 0.027       .   A
C883       C894 0.038       .   A
C883       H898 0.027       .   A
C883       H899 0.027       .   A
C884       H901 0.027       .   A
C884       H902 0.027       .   A
C884       H903 0.027       .   A
C884       O904 0.036       .   A
C886       N887 0.036       .   A
C886       H891 0.027       .   A
C886       H892 0.027       .   A
N887       N888 0.034       .   A
N887       N890 0.034       .   A
N888       N889 0.031       .   A
N890       N900 0.031       .   A
C894       H895 0.027       .   A
C894       H896 0.027       .   A
C894       H897 0.027       .   A
C845       C846 0.034       .   A
C845       C850 0.034       .   A
C846       C847 0.034       .   A
C846       C853 0.038       .   A
C847       C848 0.034       .   A
C847       H852 0.027       .   A
C848       C849 0.034       .   A
C848       C851 0.038       .   A
C849       C850 0.034       .   A
C849       H855 0.027       .   A
C850       O874 0.035       .   A
C851       C856 0.038       .   A
C851       N859 0.037       .   A
C851       H863 0.027       .   A
C853       C864 0.038       .   A
C853       H868 0.027       .   A
C853       H869 0.027       .   A
C854       H871 0.027       .   A
C854       H872 0.027       .   A
C854       H873 0.027       .   A
C854       O874 0.036       .   A
C856       N857 0.036       .   A
C856       H861 0.027       .   A
C856       H862 0.027       .   A
N857       N858 0.034       .   A
N857       N860 0.034       .   A
N858       N859 0.031       .   A
N860       N870 0.031       .   A
C864       H865 0.027       .   A
C864       H866 0.027       .   A
C864       H867 0.027       .   A
C815       C816 0.034       .   A
C815       C820 0.034       .   A
C816       C817 0.034       .   A
C816       C823 0.038       .   A
C817       C818 0.034       .   A
C817       H822 0.027       .   A
C818       C819 0.034       .   A
C818       C821 0.038       .   A
C819       C820 0.034       .   A
C819       H825 0.027       .   A
C820       O844 0.035       .   A
C821       C826 0.038       .   A
C821       N829 0.037       .   A
C821       H833 0.027       .   A
C823       C834 0.038       .   A
C823       H838 0.027       .   A
C823       H839 0.027       .   A
C824       H841 0.027       .   A
C824       H842 0.027       .   A
C824       H843 0.027       .   A
C824       O844 0.036       .   A
C826       N827 0.036       .   A
C826       H831 0.027       .   A
C826       H832 0.027       .   A
N827       N828 0.034       .   A
N827       N830 0.034       .   A
N828       N829 0.031       .   A
N830       N840 0.031       .   A
C834       H835 0.027       .   A
C834       H836 0.027       .   A
C834       H837 0.027       .   A
C785       C786 0.034       .   A
C785       C790 0.034       .   A
C786       C787 0.034       .   A
C786       C793 0.038       .   A
C787       C788 0.034       .   A
C787       H792 0.027       .   A
C788       C789 0.034       .   A
C788       C791 0.038       .   A
C789       C790 0.034       .   A
C789       H795 0.027       .   A
C790       O814 0.035       .   A
C791       C796 0.038       .   A
C791       N799 0.037       .   A
C791       H803 0.027       .   A
C793       C804 0.038       .   A
C793       H808 0.027       .   A
C793       H809 0.027       .   A
C794       H811 0.027       .   A
C794       H812 0.027       .   A
C794       H813 0.027       .   A
C794       O814 0.036       .   A
C796       N797 0.036       .   A
C796       H801 0.027       .   A
C796       H802 0.027       .   A
N797       N798 0.034       .   A
N797       N800 0.034       .   A
N798       N799 0.031       .   A
N800       N810 0.031       .   A
C804       H805 0.027       .   A
C804       H806 0.027       .   A
C804       H807 0.027       .   A
C755       C756 0.034       .   A
C755       C760 0.034       .   A
C756       C757 0.034       .   A
C756       C763 0.038       .   A
C757       C758 0.034       .   A
C757       H762 0.027       .   A
C758       C759 0.034       .   A
C758       C761 0.038       .   A
C759       C760 0.034       .   A
C759       H765 0.027       .   A
C760       O784 0.035       .   A
C761       C766 0.038       .   A
C761       N769 0.037       .   A
C761       H773 0.027       .   A
C763       C774 0.038       .   A
C763       H778 0.027       .   A
C763       H779 0.027       .   A
C764       H781 0.027       .   A
C764       H782 0.027       .   A
C764       H783 0.027       .   A
C764       O784 0.036       .   A
C766       N767 0.036       .   A
C766       H771 0.027       .   A
C766       H772 0.027       .   A
N767       N768 0.034       .   A
N767       N770 0.034       .   A
N768       N769 0.031       .   A
N770       N780 0.031       .   A
C774       H775 0.027       .   A
C774       H776 0.027       .   A
C774       H777 0.027       .   A
C725       C726 0.034       .   A
C725       C730 0.034       .   A
C726       C727 0.034       .   A
C726       C733 0.038       .   A
C727       C728 0.034       .   A
C727       H732 0.027       .   A
C728       C729 0.034       .   A
C728       C731 0.038       .   A
C729       C730 0.034       .   A
C729       H735 0.027       .   A
C730       O754 0.035       .   A
C731       C736 0.038       .   A
C731       N739 0.037       .   A
C731       H743 0.027       .   A
C733       C744 0.038       .   A
C733       H748 0.027       .   A
C733       H749 0.027       .   A
C734       H751 0.027       .   A
C734       H752 0.027       .   A
C734       H753 0.027       .   A
C734       O754 0.036       .   A
C736       N737 0.036       .   A
C736       H741 0.027       .   A
C736       H742 0.027       .   A
N737       N738 0.034       .   A
N737       N740 0.034       .   A
N738       N739 0.031       .   A
N740       N750 0.031       .   A
C744       H745 0.027       .   A
C744       H746 0.027       .   A
C744       H747 0.027       .   A
C695       C696 0.034       .   A
C695       C700 0.034       .   A
C696       C697 0.034       .   A
C696       C703 0.038       .   A
C697       C698 0.034       .   A
C697       H702 0.027       .   A
C698       C699 0.034       .   A
C698       C701 0.038       .   A
C699       C700 0.034       .   A
C699       H705 0.027       .   A
C700       O724 0.035       .   A
C701       C706 0.038       .   A
C701       N709 0.037       .   A
C701       H713 0.027       .   A
C703       C714 0.038       .   A
C703       H718 0.027       .   A
C703       H719 0.027       .   A
C704       H721 0.027       .   A
C704       H722 0.027       .   A
C704       H723 0.027       .   A
C704       O724 0.036       .   A
C706       N707 0.036       .   A
C706       H711 0.027       .   A
C706       H712 0.027       .   A
N707       N708 0.034       .   A
N707       N710 0.034       .   A
N708       N709 0.031       .   A
N710       N720 0.031       .   A
C714       H715 0.027       .   A
C714       H716 0.027       .   A
C714       H717 0.027       .   A
C665       C666 0.034       .   A
C665       C670 0.034       .   A
C666       C667 0.034       .   A
C666       C673 0.038       .   A
C667       C668 0.034       .   A
C667       H672 0.027       .   A
C668       C669 0.034       .   A
C668       C671 0.038       .   A
C669       C670 0.034       .   A
C669       H675 0.027       .   A
C670       O694 0.035       .   A
C671       C676 0.038       .   A
C671       N679 0.037       .   A
C671       H683 0.027       .   A
C673       C684 0.038       .   A
C673       H688 0.027       .   A
C673       H689 0.027       .   A
C674       H691 0.027       .   A
C674       H692 0.027       .   A
C674       H693 0.027       .   A
C674       O694 0.036       .   A
C676       N677 0.036       .   A
C676       H681 0.027       .   A
C676       H682 0.027       .   A
N677       N678 0.034       .   A
N677       N680 0.034       .   A
N678       N679 0.031       .   A
N680       N690 0.031       .   A
C684       H685 0.027       .   A
C684       H686 0.027       .   A
C684       H687 0.027       .   A
C635       C636 0.034       .   A
C635       C640 0.034       .   A
C636       C637 0.034       .   A
C636       C643 0.038       .   A
C637       C638 0.034       .   A
C637       H642 0.027       .   A
C638       C639 0.034       .   A
C638       C641 0.038       .   A
C639       C640 0.034       .   A
C639       H645 0.027       .   A
C640       O664 0.035       .   A
C641       C646 0.038       .   A
C641       N649 0.037       .   A
C641       H653 0.027       .   A
C643       C654 0.038       .   A
C643       H658 0.027       .   A
C643       H659 0.027       .   A
C644       H661 0.027       .   A
C644       H662 0.027       .   A
C644       H663 0.027       .   A
C644       O664 0.036       .   A
C646       N647 0.036       .   A
C646       H651 0.027       .   A
C646       H652 0.027       .   A
N647       N648 0.034       .   A
N647       N650 0.034       .   A
N648       N649 0.031       .   A
N650       N660 0.031       .   A
C654       H655 0.027       .   A
C654       H656 0.027       .   A
C654       H657 0.027       .   A
C605       C606 0.034       .   A
C605       C610 0.034       .   A
C606       C607 0.034       .   A
C606       C613 0.038       .   A
C607       C608 0.034       .   A
C607       H612 0.027       .   A
C608       C609 0.034       .   A
C608       C611 0.038       .   A
C609       C610 0.034       .   A
C609       H615 0.027       .   A
C610       O634 0.035       .   A
C611       C616 0.038       .   A
C611       N619 0.037       .   A
C611       H623 0.027       .   A
C613       C624 0.038       .   A
C613       H628 0.027       .   A
C613       H629 0.027       .   A
C614       H631 0.027       .   A
C614       H632 0.027       .   A
C614       H633 0.027       .   A
C614       O634 0.036       .   A
C616       N617 0.036       .   A
C616       H621 0.027       .   A
C616       H622 0.027       .   A
N617       N618 0.034       .   A
N617       N620 0.034       .   A
N618       N619 0.031       .   A
N620       N630 0.031       .   A
C624       H625 0.027       .   A
C624       H626 0.027       .   A
C624       H627 0.027       .   A
C575       C576 0.034       .   A
C575       C580 0.034       .   A
C576       C577 0.034       .   A
C576       C583 0.038       .   A
C577       C578 0.034       .   A
C577       H582 0.027       .   A
C578       C579 0.034       .   A
C578       C581 0.038       .   A
C579       C580 0.034       .   A
C579       H585 0.027       .   A
C580       O604 0.035       .   A
C581       C586 0.038       .   A
C581       N589 0.037       .   A
C581       H593 0.027       .   A
C583       C594 0.038       .   A
C583       H598 0.027       .   A
C583       H599 0.027       .   A
C584       H601 0.027       .   A
C584       H602 0.027       .   A
C584       H603 0.027       .   A
C584       O604 0.036       .   A
C586       N587 0.036       .   A
C586       H591 0.027       .   A
C586       H592 0.027       .   A
N587       N588 0.034       .   A
N587       N590 0.034       .   A
N588       N589 0.031       .   A
N590       N600 0.031       .   A
C594       H595 0.027       .   A
C594       H596 0.027       .   A
C594       H597 0.027       .   A
C545       C546 0.034       .   A
C545       C550 0.034       .   A
C546       C547 0.034       .   A
C546       C553 0.038       .   A
C547       C548 0.034       .   A
C547       H552 0.027       .   A
C548       C549 0.034       .   A
C548       C551 0.038       .   A
C549       C550 0.034       .   A
C549       H555 0.027       .   A
C550       O574 0.035       .   A
C551       C556 0.038       .   A
C551       N559 0.037       .   A
C551       H563 0.027       .   A
C553       C564 0.038       .   A
C553       H568 0.027       .   A
C553       H569 0.027       .   A
C554       H571 0.027       .   A
C554       H572 0.027       .   A
C554       H573 0.027       .   A
C554       O574 0.036       .   A
C556       N557 0.036       .   A
C556       H561 0.027       .   A
C556       H562 0.027       .   A
N557       N558 0.034       .   A
N557       N560 0.034       .   A
N558       N559 0.031       .   A
N560       N570 0.031       .   A
C564       H565 0.027       .   A
C564       H566 0.027       .   A
C564       H567 0.027       .   A
C515       C516 0.034       .   A
C515       C520 0.034       .   A
C516       C517 0.034       .   A
C516       C523 0.038       .   A
C517       C518 0.034       .   A
C517       H522 0.027       .   A
C518       C519 0.034       .   A
C518       C521 0.038       .   A
C519       C520 0.034       .   A
C519       H525 0.027       .   A
C520       O544 0.035       .   A
C521       C526 0.038       .   A
C521       N529 0.037       .   A
C521       H533 0.027       .   A
C523       C534 0.038       .   A
C523       H538 0.027       .   A
C523       H539 0.027       .   A
C524       H541 0.027       .   A
C524       H542 0.027       .   A
C524       H543 0.027       .   A
C524       O544 0.036       .   A
C526       N527 0.036       .   A
C526       H531 0.027       .   A
C526       H532 0.027       .   A
N527       N528 0.034       .   A
N527       N530 0.034       .   A
N528       N529 0.031       .   A
N530       N540 0.031       .   A
C534       H535 0.027       .   A
C534       H536 0.027       .   A
C534       H537 0.027       .   A
C485       C486 0.034       .   A
C485       C490 0.034       .   A
C486       C487 0.034       .   A
C486       C493 0.038       .   A
C487       C488 0.034       .   A
C487       H492 0.027       .   A
C488       C489 0.034       .   A
C488       C491 0.038       .   A
C489       C490 0.034       .   A
C489       H495 0.027       .   A
C490       O514 0.035       .   A
C491       C496 0.038       .   A
C491       N499 0.037       .   A
C491       H503 0.027       .   A
C493       C504 0.038       .   A
C493       H508 0.027       .   A
C493       H509 0.027       .   A
C494       H511 0.027       .   A
C494       H512 0.027       .   A
C494       H513 0.027       .   A
C494       O514 0.036       .   A
C496       N497 0.036       .   A
C496       H501 0.027       .   A
C496       H502 0.027       .   A
N497       N498 0.034       .   A
N497       N500 0.034       .   A
N498       N499 0.031       .   A
N500       N510 0.031       .   A
C504       H505 0.027       .   A
C504       H506 0.027       .   A
C504       H507 0.027       .   A
C455       C456 0.034       .   A
C455       C460 0.034       .   A
C456       C457 0.034       .   A
C456       C463 0.038       .   A
C457       C458 0.034       .   A
C457       H462 0.027       .   A
C458       C459 0.034       .   A
C458       C461 0.038       .   A
C459       C460 0.034       .   A
C459       H465 0.027       .   A
C460       O484 0.035       .   A
C461       C466 0.038       .   A
C461       N469 0.037       .   A
C461       H473 0.027       .   A
C463       C474 0.038       .   A
C463       H478 0.027       .   A
C463       H479 0.027       .   A
C464       H481 0.027       .   A
C464       H482 0.027       .   A
C464       H483 0.027       .   A
C464       O484 0.036       .   A
C466       N467 0.036       .   A
C466       H471 0.027       .   A
C466       H472 0.027       .   A
N467       N468 0.034       .   A
N467       N470 0.034       .   A
N468       N469 0.031       .   A
N470       N480 0.031       .   A
C474       H475 0.027       .   A
C474       H476 0.027       .   A
C474       H477 0.027       .   A
C425       C426 0.034       .   A
C425       C430 0.034       .   A
C426       C427 0.034       .   A
C426       C433 0.038       .   A
C427       C428 0.034       .   A
C427       H432 0.027       .   A
C428       C429 0.034       .   A
C428       C431 0.038       .   A
C429       C430 0.034       .   A
C429       H435 0.027       .   A
C430       O454 0.035       .   A
C431       C436 0.038       .   A
C431       N439 0.037       .   A
C431       H443 0.027       .   A
C433       C444 0.038       .   A
C433       H448 0.027       .   A
C433       H449 0.027       .   A
C434       H451 0.027       .   A
C434       H452 0.027       .   A
C434       H453 0.027       .   A
C434       O454 0.036       .   A
C436       N437 0.036       .   A
C436       H441 0.027       .   A
C436       H442 0.027       .   A
N437       N438 0.034       .   A
N437       N440 0.034       .   A
N438       N439 0.031       .   A
N440       N450 0.031       .   A
C444       H445 0.027       .   A
C444       H446 0.027       .   A
C444       H447 0.027       .   A
C395       C396 0.034       .   A
C395       C400 0.034       .   A
C396       C397 0.034       .   A
C396       C403 0.038       .   A
C397       C398 0.034       .   A
C397       H402 0.027       .   A
C398       C399 0.034       .   A
C398       C401 0.038       .   A
C399       C400 0.034       .   A
C399       H405 0.027       .   A
C400       O424 0.035       .   A
C401       C406 0.038       .   A
C401       N409 0.037       .   A
C401       H413 0.027       .   A
C403       C414 0.038       .   A
C403       H418 0.027       .   A
C403       H419 0.027       .   A
C404       H421 0.027       .   A
C404       H422 0.027       .   A
C404       H423 0.027       .   A
C404       O424 0.036       .   A
C406       N407 0.036       .   A
C406       H411 0.027       .   A
C406       H412 0.027       .   A
N407       N408 0.034       .   A
N407       N410 0.034       .   A
N408       N409 0.031       .   A
N410       N420 0.031       .   A
C414       H415 0.027       .   A
C414       H416 0.027       .   A
C414       H417 0.027       .   A
C365       C366 0.034       .   A
C365       C370 0.034       .   A
C366       C367 0.034       .   A
C366       C373 0.038       .   A
C367       C368 0.034       .   A
C367       H372 0.027       .   A
C368       C369 0.034       .   A
C368       C371 0.038       .   A
C369       C370 0.034       .   A
C369       H375 0.027       .   A
C370       O394 0.035       .   A
C371       C376 0.038       .   A
C371       N379 0.037       .   A
C371       H383 0.027       .   A
C373       C384 0.038       .   A
C373       H388 0.027       .   A
C373       H389 0.027       .   A
C374       H391 0.027       .   A
C374       H392 0.027       .   A
C374       H393 0.027       .   A
C374       O394 0.036       .   A
C376       N377 0.036       .   A
C376       H381 0.027       .   A
C376       H382 0.027       .   A
N377       N378 0.034       .   A
N377       N380 0.034       .   A
N378       N379 0.031       .   A
N380       N390 0.031       .   A
C384       H385 0.027       .   A
C384       H386 0.027       .   A
C384       H387 0.027       .   A
C335       C336 0.034       .   A
C335       C340 0.034       .   A
C336       C337 0.034       .   A
C336       C343 0.038       .   A
C337       C338 0.034       .   A
C337       H342 0.027       .   A
C338       C339 0.034       .   A
C338       C341 0.038       .   A
C339       C340 0.034       .   A
C339       H345 0.027       .   A
C340       O364 0.035       .   A
C341       C346 0.038       .   A
C341       N349 0.037       .   A
C341       H353 0.027       .   A
C343       C354 0.038       .   A
C343       H358 0.027       .   A
C343       H359 0.027       .   A
C344       H361 0.027       .   A
C344       H362 0.027       .   A
C344       H363 0.027       .   A
C344       O364 0.036       .   A
C346       N347 0.036       .   A
C346       H351 0.027       .   A
C346       H352 0.027       .   A
N347       N348 0.034       .   A
N347       N350 0.034       .   A
N348       N349 0.031       .   A
N350       N360 0.031       .   A
C354       H355 0.027       .   A
C354       H356 0.027       .   A
C354       H357 0.027       .   A
C305       C306 0.034       .   A
C305       C310 0.034       .   A
C306       C307 0.034       .   A
C306       C313 0.038       .   A
C307       C308 0.034       .   A
C307       H312 0.027       .   A
C308       C309 0.034       .   A
C308       C311 0.038       .   A
C309       C310 0.034       .   A
C309       H315 0.027       .   A
C310       O334 0.035       .   A
C311       C316 0.038       .   A
C311       N319 0.037       .   A
C311       H323 0.027       .   A
C313       C324 0.038       .   A
C313       H328 0.027       .   A
C313       H329 0.027       .   A
C314       H331 0.027       .   A
C314       H332 0.027       .   A
C314       H333 0.027       .   A
C314       O334 0.036       .   A
C316       N317 0.036       .   A
C316       H321 0.027       .   A
C316       H322 0.027       .   A
N317       N318 0.034       .   A
N317       N320 0.034       .   A
N318       N319 0.031       .   A
N320       N330 0.031       .   A
C324       H325 0.027       .   A
C324       H326 0.027       .   A
C324       H327 0.027       .   A
C275       C276 0.034       .   A
C275       C280 0.034       .   A
C276       C277 0.034       .   A
C276       C283 0.038       .   A
C277       C278 0.034       .   A
C277       H282 0.027       .   A
C278       C279 0.034       .   A
C278       C281 0.038       .   A
C279       C280 0.034       .   A
C279       H285 0.027       .   A
C280       O304 0.035       .   A
C281       C286 0.038       .   A
C281       N289 0.037       .   A
C281       H293 0.027       .   A
C283       C294 0.038       .   A
C283       H298 0.027       .   A
C283       H299 0.027       .   A
C284       H301 0.027       .   A
C284       H302 0.027       .   A
C284       H303 0.027       .   A
C284       O304 0.036       .   A
C286       N287 0.036       .   A
C286       H291 0.027       .   A
C286       H292 0.027       .   A
N287       N288 0.034       .   A
N287       N290 0.034       .   A
N288       N289 0.031       .   A
N290       N300 0.031       .   A
C294       H295 0.027       .   A
C294       H296 0.027       .   A
C294       H297 0.027       .   A
C245       C246 0.034       .   A
C245       C250 0.034       .   A
C246       C247 0.034       .   A
C246       C253 0.038       .   A
C247       C248 0.034       .   A
C247       H252 0.027       .   A
C248       C249 0.034       .   A
C248       C251 0.038       .   A
C249       C250 0.034       .   A
C249       H255 0.027       .   A
C250       O274 0.035       .   A
C251       C256 0.038       .   A
C251       N259 0.037       .   A
C251       H263 0.027       .   A
C253       C264 0.038       .   A
C253       H268 0.027       .   A
C253       H269 0.027       .   A
C254       H271 0.027       .   A
C254       H272 0.027       .   A
C254       H273 0.027       .   A
C254       O274 0.036       .   A
C256       N257 0.036       .   A
C256       H261 0.027       .   A
C256       H262 0.027       .   A
N257       N258 0.034       .   A
N257       N260 0.034       .   A
N258       N259 0.031       .   A
N260       N270 0.031       .   A
C264       H265 0.027       .   A
C264       H266 0.027       .   A
C264       H267 0.027       .   A
C215       C216 0.034       .   A
C215       C220 0.034       .   A
C216       C217 0.034       .   A
C216       C223 0.038       .   A
C217       C218 0.034       .   A
C217       H222 0.027       .   A
C218       C219 0.034       .   A
C218       C221 0.038       .   A
C219       C220 0.034       .   A
C219       H225 0.027       .   A
C220       O244 0.035       .   A
C221       C226 0.038       .   A
C221       N229 0.037       .   A
C221       H233 0.027       .   A
C223       C234 0.038       .   A
C223       H238 0.027       .   A
C223       H239 0.027       .   A
C224       H241 0.027       .   A
C224       H242 0.027       .   A
C224       H243 0.027       .   A
C224       O244 0.036       .   A
C226       N227 0.036       .   A
C226       H231 0.027       .   A
C226       H232 0.027       .   A
N227       N228 0.034       .   A
N227       N230 0.034       .   A
N228       N229 0.031       .   A
N230       N240 0.031       .   A
C234       H235 0.027       .   A
C234       H236 0.027       .   A
C234       H237 0.027       .   A
C185       C186 0.034       .   A
C185       C190 0.034       .   A
C186       C187 0.034       .   A
C186       C193 0.038       .   A
C187       C188 0.034       .   A
C187       H192 0.027       .   A
C188       C189 0.034       .   A
C188       C191 0.038       .   A
C189       C190 0.034       .   A
C189       H195 0.027       .   A
C190       O214 0.035       .   A
C191       C196 0.038       .   A
C191       N199 0.037       .   A
C191       H203 0.027       .   A
C193       C204 0.038       .   A
C193       H208 0.027       .   A
C193       H209 0.027       .   A
C194       H211 0.027       .   A
C194       H212 0.027       .   A
C194       H213 0.027       .   A
C194       O214 0.036       .   A
C196       N197 0.036       .   A
C196       H201 0.027       .   A
C196       H202 0.027       .   A
N197       N198 0.034       .   A
N197       N200 0.034       .   A
N198       N199 0.031       .   A
N200       N210 0.031       .   A
C204       H205 0.027       .   A
C204       H206 0.027       .   A
C204       H207 0.027       .   A
